Circuit: * D:\Projekte\ELController\ltspice model\Draft1.asc

Limiting rise time of source v1 to 1e-006
Limiting fall time of source v1 to 1e-006
.OP point found by inspection.

Date: Wed Feb 15 16:47:55 2023
Total elapsed time: 0.520 seconds.

tnom = 27
temp = 27
method = modified trap
totiter = 461428
traniter = 461428
tranpoints = 230715
accept = 186444
rejected = 44271
matrix size = 5
fillins = 0
solver = Normal
Matrix Compiler1: 150 bytes object code size  0.1/0.1/[0.1]
Matrix Compiler2: off  [0.1]/0.1/0.1

