Circuit: * D:\Projekte\ELController\ltspice model\Filter Test R4c.asc

Limiting rise time of source v6 to 1e-007
Limiting fall time of source v6 to 1e-007
Direct Newton iteration for .op point succeeded.

Date: Wed Oct 19 19:01:30 2022
Total elapsed time: 0.550 seconds.

tnom = 27
temp = 27
method = modified trap
totiter = 177075
traniter = 177061
tranpoints = 76521
accept = 61569
rejected = 14952
matrix size = 27
fillins = 8
solver = Normal
Matrix Compiler1: 2.15 KB object code size  0.3/0.2/[0.1]
Matrix Compiler2: off  [0.1]/0.2/0.2

