Circuit: * Z:\media\Daten\Projekte\ELController\ltspice model\FilterTest.asc

Limiting rise time of source v4 to 2.5e-005
Limiting fall time of source v4 to 2.5e-005
Limiting rise time of source v3 to 2.5e-005
Limiting fall time of source v3 to 2.5e-005
Limiting rise time of source v1 to 2.5e-005
Limiting fall time of source v1 to 2.5e-005
Direct Newton iteration for .op point succeeded.

Date: Sun Feb 13 18:45:37 2022
Total elapsed time: 0.098 seconds.

tnom = 27
temp = 27
method = modified trap
totiter = 3154
traniter = 3151
tranpoints = 1572
accept = 1483
rejected = 89
matrix size = 18
fillins = 1
solver = Normal
Matrix Compiler1: 494 bytes object code size  0.2/0.1/[0.1]
Matrix Compiler2: 1.07 KB object code size  0.1/0.2/[0.1]

