Circuit: * D:\Projekte\ELController\ltspice model\Filter Test R4 new dampened.asc

Direct Newton iteration for .op point succeeded.

Date: Fri Mar 10 20:39:41 2023
Total elapsed time: 0.096 seconds.

tnom = 27
temp = 27
method = modified trap
totiter = 24239
traniter = 24235
tranpoints = 11824
accept = 11764
rejected = 60
matrix size = 28
fillins = 24
solver = Normal
Matrix Compiler1: 2.58 KB object code size  0.3/0.1/[0.1]
Matrix Compiler2: 2.32 KB object code size  0.1/0.2/[0.1]

