Circuit: * D:\Projekte\ELController\ltspice model\Filter Test R4 new.asc

Direct Newton iteration for .op point succeeded.

Date: Wed Mar 08 21:34:21 2023
Total elapsed time: 0.129 seconds.

tnom = 27
temp = 27
method = modified trap
totiter = 24064
traniter = 24060
tranpoints = 11741
accept = 11724
rejected = 17
matrix size = 24
fillins = 16
solver = Normal
Matrix Compiler1: 2.08 KB object code size  0.2/0.2/[0.1]
Matrix Compiler2: off  [0.1]/0.2/0.2

