Circuit: * D:\Projekte\ELController\ltspice model\Filter Test R4.asc

Direct Newton iteration for .op point succeeded.

Date: Sat Apr 22 17:15:54 2023
Total elapsed time: 0.464 seconds.

tnom = 27
temp = 27
method = modified trap
totiter = 24254
traniter = 24250
tranpoints = 11834
accept = 11752
rejected = 82
matrix size = 24
fillins = 20
solver = Normal
Matrix Compiler1: 1.85 KB object code size  0.2/0.1/[0.1]
Matrix Compiler2: off  [0.1]/0.1/0.1

