Circuit: * D:\Projekte\ELController\ltspice model\Filter Test R4 new resistor.asc

Direct Newton iteration for .op point succeeded.

Date: Wed Mar 08 21:28:54 2023
Total elapsed time: 0.104 seconds.

tnom = 27
temp = 27
method = modified trap
totiter = 24182
traniter = 24178
tranpoints = 11807
accept = 11806
rejected = 1
matrix size = 24
fillins = 20
solver = Normal
Matrix Compiler1: 1.85 KB object code size  0.3/0.2/[0.1]
Matrix Compiler2: 1.83 KB object code size  0.2/0.2/[0.1]

