Circuit: * D:\Projekte\ELController\ltspice model\Filter Test R4a.asc

Limiting rise time of source v6 to 1e-007
Limiting fall time of source v6 to 1e-007
V2: Removing PWL point (1.66e-006,0)
V2: Removing PWL point (0.00051192,0)
V2: Removing PWL point (0.00100251,0)
V2: Removing PWL point (0.00151443,0)
V2: Removing PWL point (0.00200502,0)
V2: Removing PWL point (0.00251694,0)
V2: Removing PWL point (0.00300753,0)
V2: Removing PWL point (0.00351945,0)
V2: Removing PWL point (0.00401004,0)
V2: Removing PWL point (0.00450063,0)
V2: Removing PWL point (0.00501255,0)
V2: Removing PWL point (0.00550314,0)
V2: Removing PWL point (0.00601506,0)
V2: Removing PWL point (0.00650565,0)
V2: Removing PWL point (0.00701757,0)
V2: Removing PWL point (0.00750816,0)
V2: Removing PWL point (0.00802008,0)
V2: Removing PWL point (0.00851067,0)
V2: Removing PWL point (0.00900126,0)
V2: Removing PWL point (0.00951318,0)
V2: Removing PWL point (0.0100038,0)
V2: Removing PWL point (0.0105157,0)
V2: Removing PWL point (0.0110063,0)
V2: Removing PWL point (0.0115182,0)
V2: Removing PWL point (0.0120088,0)
V2: Removing PWL point (0.0125207,0)
V2: Removing PWL point (0.0130113,0)
V2: Removing PWL point (0.0135019,0)
V2: Removing PWL point (0.0140138,0)
V2: Removing PWL point (0.0145044,0)
V2: Removing PWL point (0.0150163,0)
V2: Removing PWL point (0.0155069,0)
V2: Removing PWL point (0.0160188,0)
V2: Removing PWL point (0.0165094,0)
V2: Removing PWL point (0.017,0)
V2: Removing PWL point (0.0175119,0)
V2: Removing PWL point (0.0180025,0)
V2: Removing PWL point (0.0185144,0)
V2: Removing PWL point (0.019005,0)
V2: Removing PWL point (0.019517,0)
V2: Removing PWL point (0.0200075,0)
V2: Removing PWL point (0.0205195,0)
V2: Removing PWL point (0.02101,0)
V2: Removing PWL point (0.0215006,0)
V2: Removing PWL point (0.0220126,0)
V2: Removing PWL point (0.0225032,0)
V2: Removing PWL point (0.0230151,0)
V2: Removing PWL point (0.0235057,0)
V2: Removing PWL point (0.0240176,0)
V2: Removing PWL point (0.0245082,0)
V2: Removing PWL point (0.0250201,0)
V2: Removing PWL point (0.0255107,0)
V2: Removing PWL point (0.0260013,0)
V2: Removing PWL point (0.0265132,0)
V2: Removing PWL point (0.0270038,0)
V2: Removing PWL point (0.0275157,0)
V2: Removing PWL point (0.0280063,0)
V2: Removing PWL point (0.0285182,0)
V2: Removing PWL point (0.0290088,0)
V2: Removing PWL point (0.0295207,0)
V2: Removing PWL point (0.0300113,0)
V2: Removing PWL point (0.0305019,0)
V2: Removing PWL point (0.0310138,0)
V2: Removing PWL point (0.0315044,0)
V2: Removing PWL point (0.0320163,0)
V2: Removing PWL point (0.0325069,0)
V2: Removing PWL point (0.0330188,0)
V2: Removing PWL point (0.0335094,0)
V2: Removing PWL point (0.034,0)
V2: Removing PWL point (0.0345119,0)
V2: Removing PWL point (0.0350025,0)
V2: Removing PWL point (0.0355145,0)
V2: Removing PWL point (0.036005,0)
V2: Removing PWL point (0.036517,0)
V2: Removing PWL point (0.0370076,0)
V2: Removing PWL point (0.0375195,0)
V2: Removing PWL point (0.0380101,0)
V2: Removing PWL point (0.0385006,0)
V2: Removing PWL point (0.0390126,0)
V2: Removing PWL point (0.0395032,0)
V2: Removing PWL point (0.0400151,0)
V2: Removing PWL point (0.0405057,0)
V2: Removing PWL point (0.0410176,0)
V2: Removing PWL point (0.0415082,0)
V2: Removing PWL point (0.0420201,0)
V2: Removing PWL point (0.0425107,0)
V1: Removing PWL point (1.66e-006,0)
V1: Removing PWL point (0.00025596,0)
V1: Removing PWL point (0.00076788,0)
V1: Removing PWL point (0.00125847,0)
V1: Removing PWL point (0.00177039,0)
V1: Removing PWL point (0.00226098,0)
V1: Removing PWL point (0.00275157,0)
V1: Removing PWL point (0.00326349,0)
V1: Removing PWL point (0.00375408,0)
V1: Removing PWL point (0.004266,0)
V1: Removing PWL point (0.00475659,0)
V1: Removing PWL point (0.00526851,0)
V1: Removing PWL point (0.0057591,0)
V1: Removing PWL point (0.00627102,0)
V1: Removing PWL point (0.00676161,0)
V1: Removing PWL point (0.0072522,0)
V1: Removing PWL point (0.00776412,0)
V1: Removing PWL point (0.00825471,0)
V1: Removing PWL point (0.00876663,0)
V1: Removing PWL point (0.00925722,0)
V1: Removing PWL point (0.00976914,0)
V1: Removing PWL point (0.0102597,0)
V1: Removing PWL point (0.0107503,0)
V1: Removing PWL point (0.0112622,0)
V1: Removing PWL point (0.0117528,0)
V1: Removing PWL point (0.0122648,0)
V1: Removing PWL point (0.0127553,0)
V1: Removing PWL point (0.0132673,0)
V1: Removing PWL point (0.0137579,0)
V1: Removing PWL point (0.0142698,0)
V1: Removing PWL point (0.0147604,0)
V1: Removing PWL point (0.0152509,0)
V1: Removing PWL point (0.0157629,0)
V1: Removing PWL point (0.0162535,0)
V1: Removing PWL point (0.0167654,0)
V1: Removing PWL point (0.017256,0)
V1: Removing PWL point (0.0177679,0)
V1: Removing PWL point (0.0182585,0)
V1: Removing PWL point (0.0187704,0)
V1: Removing PWL point (0.019261,0)
V1: Removing PWL point (0.0197516,0)
V1: Removing PWL point (0.0202635,0)
V1: Removing PWL point (0.0207541,0)
V1: Removing PWL point (0.021266,0)
V1: Removing PWL point (0.0217566,0)
V1: Removing PWL point (0.0222685,0)
V1: Removing PWL point (0.0227591,0)
V1: Removing PWL point (0.023271,0)
V1: Removing PWL point (0.0237616,0)
V1: Removing PWL point (0.0242522,0)
V1: Removing PWL point (0.0247641,0)
V1: Removing PWL point (0.0252547,0)
V1: Removing PWL point (0.0257666,0)
V1: Removing PWL point (0.0262572,0)
V1: Removing PWL point (0.0267691,0)
V1: Removing PWL point (0.0272597,0)
V1: Removing PWL point (0.0277503,0)
V1: Removing PWL point (0.0282622,0)
V1: Removing PWL point (0.0287528,0)
V1: Removing PWL point (0.0292648,0)
V1: Removing PWL point (0.0297554,0)
V1: Removing PWL point (0.0302673,0)
V1: Removing PWL point (0.0307579,0)
V1: Removing PWL point (0.0312698,0)
V1: Removing PWL point (0.0317604,0)
V1: Removing PWL point (0.032251,0)
V1: Removing PWL point (0.0327629,0)
V1: Removing PWL point (0.0332535,0)
V1: Removing PWL point (0.0337654,0)
V1: Removing PWL point (0.034256,0)
V1: Removing PWL point (0.0347679,0)
V1: Removing PWL point (0.0352585,0)
V1: Removing PWL point (0.0357704,0)
V1: Removing PWL point (0.036261,0)
V1: Removing PWL point (0.0367516,0)
V1: Removing PWL point (0.0372635,0)
V1: Removing PWL point (0.0377541,0)
V1: Removing PWL point (0.038266,0)
V1: Removing PWL point (0.0387566,0)
V1: Removing PWL point (0.0392685,0)
V1: Removing PWL point (0.0397591,0)
V1: Removing PWL point (0.040271,0)
V1: Removing PWL point (0.0407616,0)
V1: Removing PWL point (0.0412522,0)
V1: Removing PWL point (0.0417641,0)
V1: Removing PWL point (0.0422547,0)
Direct Newton iteration for .op point succeeded.
Heightened Def Con from 0.000748177 to 0.000748179

Date: Tue Oct 04 20:55:07 2022
Total elapsed time: 0.561 seconds.

tnom = 27
temp = 27
method = modified trap
totiter = 174823
traniter = 174809
tranpoints = 78285
accept = 61664
rejected = 16622
matrix size = 27
fillins = 8
solver = Normal
Matrix Compiler1: 2.15 KB object code size  0.3/0.2/[0.1]
Matrix Compiler2: off  [0.1]/0.2/0.2

