Circuit: * D:\Projekte\ELController\ltspice model\Filter Test R4d.asc

Limiting rise time of source v6 to 1e-007
Limiting fall time of source v6 to 1e-007
Direct Newton iteration for .op point succeeded.

Date: Mon Oct 10 18:18:01 2022
Total elapsed time: 0.455 seconds.

tnom = 27
temp = 27
method = modified trap
totiter = 159808
traniter = 159794
tranpoints = 74301
accept = 59031
rejected = 15270
matrix size = 22
fillins = 16
solver = Normal
Matrix Compiler1: 2.78 KB object code size  0.3/0.2/[0.2]
Matrix Compiler2: off  [0.2]/0.2/0.2

