Circuit: * D:\Projekte\ELController\ltspice model\Flyback BUK.asc

Direct Newton iteration for .op point succeeded.

Date: Mon Apr 04 21:26:02 2022
Total elapsed time: 9.565 seconds.

tnom = 27
temp = 27
method = modified trap
totiter = 3270677
traniter = 3270665
tranpoints = 1310237
accept = 920114
rejected = 390123
matrix size = 30
fillins = 15
solver = Normal
Matrix Compiler1: 2.08 KB object code size  0.3/0.2/[0.2]
Matrix Compiler2: off  [0.2]/0.2/0.2

