Circuit: * D:\Projekte\ELController\ltspice model\Flyback.asc

Direct Newton iteration for .op point succeeded.

Date: Fri Dec 23 02:10:24 2022
Total elapsed time: 1.497 seconds.

tnom = 27
temp = 27
method = modified trap
totiter = 591333
traniter = 591308
tranpoints = 266674
accept = 184137
rejected = 82537
matrix size = 20
fillins = 6
solver = Normal
Matrix Compiler1: 1.30 KB object code size  0.2/0.1/[0.1]
Matrix Compiler2: off  [0.1]/0.2/0.2

