Circuit: * D:\Projekte\ELController\ltspice model\Flyback with alternating current draw.asc

Limiting rise time of source v4 to 5e-007
Limiting fall time of source v4 to 5e-007
WARNING: Node N005 is floating.

Direct Newton iteration for .op point succeeded.
Heightened Def Con from 0.00681663 to 0.00681663
Heightened Def Con from 0.00687656 to 0.00687656
Heightened Def Con from 0.00701146 to 0.00701146
Heightened Def Con from 0.00705142 to 0.00705143
Heightened Def Con from 0.00879594 to 0.00879595
Heightened Def Con from 0.00915093 to 0.00915094

Date: Sun Apr 03 23:24:57 2022
Total elapsed time: 4.229 seconds.

tnom = 27
temp = 27
method = modified trap
totiter = 1739462
traniter = 1739441
tranpoints = 692584
accept = 498275
rejected = 194315
matrix size = 23
fillins = 6
solver = Normal
Matrix Compiler1: 1.39 KB object code size  0.2/0.1/[0.1]
Matrix Compiler2: off  [0.1]/0.2/0.2

