Circuit: * Z:\media\Daten\Projekte\ELController\ltspice model\Gate loading test.asc

Limiting rise time of source v1 to 5e-005
Limiting fall time of source v1 to 5e-005
.OP point found by inspection.

Date: Sat Jan 15 08:09:58 2022
Total elapsed time: 0.017 seconds.

tnom = 27
temp = 27
method = modified trap
totiter = 2110
traniter = 2110
tranpoints = 1056
accept = 1053
rejected = 3
matrix size = 3
fillins = 0
solver = Normal
Matrix Compiler1: off  [0.1]/0.1/0.1
Matrix Compiler2: 175 bytes object code size  0.1/0.1/[0.1]

