Circuit: * Z:\media\Daten\Projekte\ELController\ltspice model\Gate capacitance test.asc

Limiting rise time of source v1 to 2.5e-005
Limiting fall time of source v1 to 2.5e-005
.OP point found by inspection.

Date: Tue Jan 11 19:24:52 2022
Total elapsed time: 0.196 seconds.

tnom = 27
temp = 27
method = modified trap
totiter = 3588
traniter = 3588
tranpoints = 1795
accept = 1611
rejected = 184
matrix size = 3
fillins = 0
solver = Normal
Matrix Compiler1: 50 bytes object code size  0.4/0.4/[0.4]
Matrix Compiler2: 175 bytes object code size  0.4/0.5/[0.3]

