Circuit: * D:\Projekte\ELController\ltspice model\ideal diode.asc

Limiting rise time of source v2 to 1e-007
Limiting fall time of source v2 to 1e-007
Direct Newton iteration for .op point succeeded.

Date: Thu Dec 22 23:30:27 2022
Total elapsed time: 0.071 seconds.

tnom = 27
temp = 27
method = modified trap
totiter = 6063
traniter = 6050
tranpoints = 1977
accept = 1700
rejected = 277
matrix size = 18
fillins = 22
solver = Normal
Matrix Compiler1: 2.47 KB object code size  0.3/0.2/[0.1]
Matrix Compiler2: off  [0.2]/0.2/0.2

