Circuit: * D:\Projekte\ELController\ltspice model\ideal diode 2.asc

Limiting rise time of source v1 to 6e-007
Limiting fall time of source v1 to 6e-007
Direct Newton iteration for .op point succeeded.

Date: Mon Dec 26 18:49:21 2022
Total elapsed time: 0.071 seconds.

tnom = 27
temp = 27
method = modified trap
totiter = 5609
traniter = 5598
tranpoints = 1829
accept = 1696
rejected = 133
matrix size = 20
fillins = 2
solver = Normal
Matrix Compiler1:      53 opcodes  0.2/[0.1]/0.1
Matrix Compiler2: off  [0.1]/0.2/0.2

