Circuit: * D:\Projekte\ELController\ltspice model\inductors on same core.asc

Limiting rise time of source v2 to 0.001
Limiting fall time of source v2 to 0.001
.OP point found by inspection.

Date: Sat Feb 04 11:11:22 2023
Total elapsed time: 0.044 seconds.

tnom = 27
temp = 27
method = modified trap
totiter = 2174
traniter = 2174
tranpoints = 1088
accept = 1083
rejected = 5
matrix size = 9
fillins = 0
solver = Normal
Matrix Compiler1:      28 opcodes  0.1/[0.0]/0.0
Matrix Compiler2: 715 bytes object code size  0.1/0.1/[0.0]

