Circuit: * OPTO TRIAC

Fatal Error: No analysis request found.
