Circuit: * Z:\media\Daten\Projekte\ELController\ltspice model\MOSC3022 test.asc

Limiting rise time of source v1 to 0.2
Limiting fall time of source v1 to 0.2
.OP point found by inspection.

Date: Fri Jan 07 20:55:24 2022
Total elapsed time: 0.082 seconds.

tnom = 27
temp = 27
method = modified trap
totiter = 20081
traniter = 20081
tranpoints = 7548
accept = 5405
rejected = 2143
matrix size = 19
fillins = 17
solver = Normal
Matrix Compiler1: 2.24 KB object code size  0.4/0.2/[0.2]
Matrix Compiler2: 1.82 KB object code size  0.2/0.3/[0.2]

