Circuit: * D:\Projekte\ELController\ltspice model\Output MOSFET Test seperate.asc

Limiting rise time of source v9 to 5e-006
Limiting fall time of source v9 to 5e-006
Limiting rise time of source v5 to 5e-006
Limiting fall time of source v5 to 5e-006
WARNING: Node N003 is floating.
WARNING: Node N011 is floating.

Instance "m:u2:os": Width narrower than recommended for a level 3 MOSFET.
Instance "m:u1:2": Length shorter than recommended for a level 3 MOSFET.
Instance "m:u1:1": Length shorter than recommended for a level 3 MOSFET.
Direct Newton iteration failed to find .op point.  (Use ".option noopiter" to skip.)
Starting Gmin stepping
Gmin = 10
Gmin = 1.07374
Gmin = 0.115292
Gmin = 0.0123794
Gmin = 0.00132923
Gmin = 0.000142725
Gmin = 1.5325e-005
Gmin = 1.6455e-006
Gmin = 1.76685e-007
Gmin = 1.89714e-008
Gmin = 2.03704e-009
Gmin = 2.18725e-010
Gmin = 2.34854e-011
Gmin = 2.52173e-012
Gmin = 2.70769e-013
Gmin = 0
Gmin stepping succeeded in finding the operating point.

Heightened Def Con from 2.55395e-009 to 7.55395e-009
Heightened Def Con from 5.75485e-005 to 5.75485e-005
Heightened Def Con from 5.79457e-005 to 5.79469e-005
Heightened Def Con from 0.0001025 to 0.000102505
Heightened Def Con from 0.000157134 ++++++++++++++++++++++++++++++++++++++++++++++++++Fatal Error: Analysis:  Time step too small; time = 0.000157134, timestep = 1.25e-019: trouble with u1:pmos-instance m:u1:1

