Circuit: * D:\Projekte\ELController\ltspice model\Output MOSFET Test short circuit power failure.asc

Limiting rise time of source v5 to 5e-006
Limiting fall time of source v5 to 5e-006
Limiting rise time of source v2 to 5e-006
Limiting fall time of source v2 to 5e-006
Limiting rise time of source v9 to 5e-006
Limiting fall time of source v9 to 5e-006
WARNING: Node N010 is floating.
WARNING: Node N009 is floating.
WARNING: Node N012 is floating.

Instance "m:u20:os": Width narrower than recommended for a level 3 MOSFET.
Instance "m:u19:os": Width narrower than recommended for a level 3 MOSFET.
Instance "m:u18:os": Width narrower than recommended for a level 3 MOSFET.
Instance "m:u17:os": Width narrower than recommended for a level 3 MOSFET.
Instance "m:u16:os": Width narrower than recommended for a level 3 MOSFET.
Instance "m:u15:os": Width narrower than recommended for a level 3 MOSFET.
Instance "m:u14:os": Width narrower than recommended for a level 3 MOSFET.
Instance "m:u13:os": Width narrower than recommended for a level 3 MOSFET.
Instance "m:u12:os": Width narrower than recommended for a level 3 MOSFET.
Instance "m:u11:os": Width narrower than recommended for a level 3 MOSFET.
Instance "m:u10:os": Width narrower than recommended for a level 3 MOSFET.
Instance "m:u9:os": Width narrower than recommended for a level 3 MOSFET.
Instance "m:u8:os": Width narrower than recommended for a level 3 MOSFET.
Instance "m:u7:os": Width narrower than recommended for a level 3 MOSFET.
Instance "m:u6:os": Width narrower than recommended for a level 3 MOSFET.
Instance "m:u2:os": Width narrower than recommended for a level 3 MOSFET.
Instance "m:u1:2": Length shorter than recommended for a level 3 MOSFET.
Instance "m:u1:1": Length shorter than recommended for a level 3 MOSFET.
Early termination of direct N-R iteration.
Direct Newton iteration failed to find .op point.  (Use ".option noopiter" to skip.)
Starting Gmin stepping
Gmin = 10
Gmin = 1.07374
Gmin = 0.115292
Gmin = 0.0123794
Gmin = 0.00132923
Gmin = 0.000142725
Gmin = 1.5325e-005
Gmin = 1.6455e-006
Gmin = 1.76685e-007
Gmin = 1.89714e-008
Gmin = 2.03704e-009
Gmin = 2.18725e-010
Gmin = 2.34854e-011
Gmin = 2.52173e-012
Gmin = 2.70769e-013
Gmin = 0
Gmin stepping succeeded in finding the operating point.

Changing Tseed to 9.76562e-012
Heightened Def Con from 9.76562e-012 to 3.13477e-009
Heightened Def Con from 3.36173e-009 to 5.37736e-009
Heightened Def Con from 5.86693e-009 to 7.99193e-009
Heightened Def Con from 8.21764e-009 to 1.03426e-008
Heightened Def Con from 1.39583e-008 ++to 1.70833e-008
Heightened Def Con from 1.76371e-008 +to 1.97621e-008
Heightened Def Con from 1.99114e-008 +to 2.20364e-008
Heightened Def Con from 2.41262e-008 +to 2.82512e-008
Heightened Def Con from 2.83225e-008 to 3.34475e-008
Heightened Def Con from 3.35209e-008 to 3.75365e-008
Heightened Def Con from 3.7888e-008 +to 4.7013e-008
Heightened Def Con from 4.7354e-008 to 5.5354e-008
Heightened Def Con from 5.567e-008 to 6.467e-008
Heightened Def Con from 6.49786e-008 to 7.01036e-008
Heightened Def Con from 7.21961e-008 to 7.31981e-008
Heightened Def Con from 7.3205e-008 to 7.42206e-008
Heightened Def Con from 7.52589e-008 to 7.63839e-008
Heightened Def Con from 7.75779e-008 ++to 8.35935e-008
Heightened Def Con from 8.45765e-008 to 8.67015e-008
Heightened Def Con from 9.02513e-008 +to 9.23763e-008
Heightened Def Con from 9.2844e-008 ++to 9.7969e-008
Heightened Def Con from 9.80158e-008 to 9.91408e-008
Heightened Def Con from 9.96063e-008 to 1.02622e-007
Heightened Def Con from 1.02701e-007 +to 1.06826e-007
Heightened Def Con from 1.09064e-007 ++to 1.15064e-007
Heightened Def Con from 1.15064e-007 to 1.17189e-007
Heightened Def Con from 1.17531e-007 to 1.26531e-007
Heightened Def Con from 1.29689e-007 +to 1.32689e-007
Heightened Def Con from 1.32721e-007 to 1.34846e-007
Heightened Def Con from 1.35064e-007 to 1.36066e-007
Heightened Def Con from 1.39768e-007 +to 1.41893e-007
Heightened Def Con from 1.41894e-007 to 1.48019e-007
Heightened Def Con from 1.49487e-007 to 1.51503e-007
Heightened Def Con from 1.51527e-007 +to 1.53652e-007
Heightened Def Con from 1.5398e-007 +to 1.55981e-007
Heightened Def Con from 1.56605e-007 to 1.5873e-007
Heightened Def Con from 1.62678e-007 ++to 1.65693e-007
Heightened Def Con from 1.66259e-007 +to 1.71384e-007
Heightened Def Con from 1.72953e-007 ++to 1.76955e-007
Heightened Def Con from 1.76959e-007 to 1.7996e-007
Heightened Def Con from 1.81599e-007 to 1.82601e-007
Heightened Def Con from 1.83319e-007 ++to 1.87335e-007
Heightened Def Con from 1.8779e-007 to 1.91915e-007
Heightened Def Con from 1.96342e-007 +++to 2.03467e-007
Heightened Def Con from 2.05691e-007 ++to 2.08707e-007
Heightened Def Con from 2.08791e-007 to 2.13807e-007
Heightened Def Con from 2.14987e-007 +to 2.18112e-007
Heightened Def Con from 2.2144e-007 +to 2.28442e-007
Heightened Def Con from 2.29725e-007 to 2.32741e-007
Heightened Def Con from 2.37279e-007 ++to 2.49404e-007
Heightened Def Con from 2.50949e-007 to 2.53074e-007
Heightened Def Con from 2.61211e-007 ++to 2.65226e-007
Heightened Def Con from 2.6934e-007 ++++to 2.79465e-007
Heightened Def Con from 2.7992e-007 to 2.81045e-007
Heightened Def Con from 2.81615e-007 ++to 2.86631e-007
Heightened Def Con from 2.89276e-007 ++to 2.95292e-007
Heightened Def Con from 2.95431e-007 +to 3.01556e-007
Heightened Def Con from 3.01581e-007 to 3.04597e-007
Heightened Def Con from 3.04682e-007 to 3.05807e-007
Heightened Def Con from 3.08065e-007 to 3.1319e-007
Heightened Def Con from 3.18077e-007 to 3.19202e-007
Heightened Def Con from 3.19286e-007 to 3.21301e-007
Heightened Def Con from 3.24688e-007 +to 3.28688e-007
Heightened Def Con from 3.28688e-007 to 3.29813e-007
Heightened Def Con from 3.31796e-007 to 3.32812e-007
Heightened Def Con from 3.34847e-007 +++to 3.40972e-007
Heightened Def Con from 3.45219e-007 +to 3.47219e-007
Heightened Def Con from 3.47219e-007 to 3.48344e-007
Heightened Def Con from 3.50904e-007 to 3.5392e-007
Heightened Def Con from 3.55089e-007 ++to 3.68214e-007
Heightened Def Con from 3.68304e-007 to 3.7332e-007
Heightened Def Con from 3.7332e-007 to 3.75445e-007
Heightened Def Con from 3.81904e-007 ++to 3.88029e-007
Heightened Def Con from 3.91068e-007 ++to 3.94193e-007
Heightened Def Con from 3.94658e-007 to 3.95783e-007
Heightened Def Con from 4.08513e-007 +++to 4.13638e-007
Heightened Def Con from 4.1857e-007 ++to 4.27695e-007
Heightened Def Con from 4.27792e-007 to 4.29917e-007
Heightened Def Con from 4.29982e-007 to 4.32107e-007
Heightened Def Con from 4.32174e-007 to 4.33176e-007
Heightened Def Con from 4.34382e-007 ++to 4.46382e-007
Heightened Def Con from 4.47142e-007 +to 4.50158e-007
Heightened Def Con from 4.50725e-007 to 4.5174e-007
Heightened Def Con from 4.53937e-007 +to 4.55937e-007
Heightened Def Con from 4.60159e-007 +to 4.69284e-007
Heightened Def Con from 4.74675e-007 to 4.758e-007
Heightened Def Con from 4.76686e-007 to 4.77688e-007
Heightened Def Con from 4.777e-007 +to 4.79825e-007
Heightened Def Con from 4.79912e-007 +to 4.84037e-007
Heightened Def Con from 4.86097e-007 +to 4.88099e-007
Heightened Def Con from 4.88863e-007 +to 4.91865e-007
Heightened Def Con from 4.96837e-007 to 4.99852e-007
Heightened Def Con from 5.00317e-007 to 5.01319e-007
Heightened Def Con from 5.02342e-007 +++to 5.12467e-007
Heightened Def Con from 5.15127e-007 to 5.22252e-007
Heightened Def Con from 5.23046e-007 to 5.25171e-007
Heightened Def Con from 5.29063e-007 ++to 5.34188e-007
Heightened Def Con from 5.3548e-007 +to 5.37605e-007
Heightened Def Con from 5.39164e-007 ++to 5.43179e-007
Heightened Def Con from 5.44607e-007 to 5.45607e-007
Heightened Def Con from 5.45607e-007 +to 5.48857e-007
Heightened Def Con from 5.48926e-007 to 5.51051e-007
Heightened Def Con from 5.51055e-007 to 5.5518e-007
Heightened Def Con from 5.57386e-007 to 5.58401e-007
Heightened Def Con from 5.59674e-007 to 5.6069e-007
Heightened Def Con from 5.60879e-007 to 5.61895e-007
Heightened Def Con from 5.74637e-007 +to 5.77639e-007
Heightened Def Con from 5.80851e-007 ++to 5.83853e-007
Heightened Def Con from 5.8764e-007 ++to 5.94765e-007
Heightened Def Con from 5.97205e-007 +to 5.99221e-007
Heightened Def Con from 6.00766e-007 ++to 6.04768e-007
Heightened Def Con from 6.04842e-007 +to 6.06967e-007
Heightened Def Con from 6.16555e-007 +to 6.19571e-007
Heightened Def Con from 6.19571e-007 to 6.20696e-007
Heightened Def Con from 6.22691e-007 ++to 6.28816e-007
Heightened Def Con from 6.28913e-007 to 6.34038e-007
Heightened Def Con from 6.35555e-007 to 6.40555e-007
Heightened Def Con from 6.40555e-007 to 6.40821e-007
Heightened Def Con from 6.46786e-007 +to 6.48911e-007
Heightened Def Con from 6.49469e-007 +++to 6.53594e-007
Heightened Def Con from 6.55835e-007 +to 6.66835e-007
Heightened Def Con from 6.67137e-007 to 6.72138e-007
Heightened Def Con from 6.72139e-007 to 6.77139e-007
Heightened Def Con from 6.77192e-007 to 6.79194e-007
Heightened Def Con from 6.8098e-007 to 6.82105e-007
Heightened Def Con from 6.85815e-007 +++to 6.9083e-007
Heightened Def Con from 6.93132e-007 +to 6.98147e-007
Heightened Def Con from 6.98845e-007 to 7.0097e-007
Heightened Def Con from 7.0174e-007 to 7.03755e-007
Heightened Def Con from 7.04365e-007 to 7.0949e-007
Heightened Def Con from 7.09555e-007 +to 7.17555e-007
Heightened Def Con from 7.17555e-007 to 7.1868e-007
Heightened Def Con from 7.2e-007 to 7.21002e-007
Heightened Def Con from 7.21007e-007 to 7.23132e-007
Heightened Def Con from 7.23228e-007 to 7.28228e-007
Heightened Def Con from 7.28248e-007 to 7.33248e-007
Heightened Def Con from 7.36054e-007 to 7.3807e-007
Heightened Def Con from 7.3912e-007 to 7.4812e-007
Heightened Def Con from 7.48811e-007 to 7.52826e-007
Heightened Def Con from 7.53766e-007 to 7.54768e-007
Heightened Def Con from 7.54794e-007 to 7.58919e-007
Heightened Def Con from 7.61443e-007 to 7.70443e-007
Heightened Def Con from 7.71666e-007 to 7.72682e-007
Heightened Def Con from 7.72682e-007 to 7.76807e-007
Heightened Def Con from 7.77281e-007 +to 7.79406e-007
Heightened Def Con from 7.79407e-007 to 7.83409e-007
Heightened Def Con from 7.84631e-007 ++to 7.89756e-007
Heightened Def Con from 7.92163e-007 to 7.93288e-007
Heightened Def Con from 7.9558e-007 +to 7.97705e-007
Heightened Def Con from 7.98258e-007 ++++to 8.0826e-007
Heightened Def Con from 8.09348e-007 to 8.15473e-007
Heightened Def Con from 8.15473e-007 to 8.21473e-007
Heightened Def Con from 8.22333e-007 to 8.23458e-007
Heightened Def Con from 8.23619e-007 to 8.24744e-007
Heightened Def Con from 8.26765e-007 ++to 8.3189e-007
Heightened Def Con from 8.33402e-007 +to 8.42402e-007
Heightened Def Con from 8.45894e-007 +to 8.5291e-007
Heightened Def Con from 8.57432e-007 +to 8.64557e-007
Heightened Def Con from 8.64703e-007 to 8.73703e-007
Heightened Def Con from 8.73705e-007 to 8.78705e-007
Heightened Def Con from 8.86364e-007 +to 8.90379e-007
Heightened Def Con from 8.96268e-007 +++++++to 9.18393e-007
Heightened Def Con from 9.20117e-007 +to 9.26133e-007
Heightened Def Con from 9.26391e-007 to 9.29516e-007
Heightened Def Con from 9.29662e-007 to 9.32678e-007
Heightened Def Con from 9.36128e-007 ++to 9.41253e-007
Heightened Def Con from 9.42301e-007 +to 9.51426e-007
Heightened Def Con from 9.53369e-007 +to 9.55494e-007
Heightened Def Con from 9.56379e-007 +to 9.58504e-007
Heightened Def Con from 9.68544e-007 ++++to 9.78669e-007
Heightened Def Con from 9.80897e-007 to 9.83022e-007
Heightened Def Con from 9.84266e-007 ++to 9.89391e-007
Heightened Def Con from 9.91202e-007 +to 9.99327e-007
Heightened Def Con from 9.99883e-007 to 1.00801e-006
Heightened Def Con from 1.00989e-006 to 1.01302e-006
Heightened Def Con from 1.01498e-006 ++to 1.01898e-006
Heightened Def Con from 1.01906e-006 to 1.02318e-006
Heightened Def Con from 1.02631e-006 ++to 1.02931e-006
Heightened Def Con from 1.02932e-006 +to 1.03133e-006
Heightened Def Con from 1.03136e-006 to 1.03248e-006
Heightened Def Con from 1.0327e-006 to 1.0367e-006
Heightened Def Con from 1.03793e-006 ++to 1.04293e-006
Heightened Def Con from 1.04293e-006 to 1.04394e-006
Heightened Def Con from 1.04559e-006 to 1.04659e-006
Heightened Def Con from 1.04749e-006 +to 1.05049e-006
Heightened Def Con from 1.05174e-006 to 1.05287e-006
Heightened Def Con from 1.05424e-006 +++to 1.06136e-006
Heightened Def Con from 1.06197e-006 to 1.06322e-006
Heightened Def Con from 1.06718e-006 +++to 1.07318e-006
Heightened Def Con from 1.07349e-006 +to 1.07962e-006
Heightened Def Con from 1.08219e-006 +to 1.08831e-006
Heightened Def Con from 1.09074e-006 +to 1.09387e-006
Heightened Def Con from 1.09398e-006 to 1.10099e-006
Heightened Def Con from 1.10165e-006 to 1.10277e-006
Heightened Def Con from 1.1053e-006 ++to 1.10942e-006
Heightened Def Con from 1.11034e-006 +to 1.11246e-006
Heightened Def Con from 1.11522e-006 ++to 1.11934e-006
Heightened Def Con from 1.12086e-006 +to 1.12299e-006
Heightened Def Con from 1.12525e-006 +to 1.13038e-006
Heightened Def Con from 1.13059e-006 +to 1.13371e-006
Heightened Def Con from 1.13746e-006 +++to 1.14358e-006
Heightened Def Con from 1.14379e-006 to 1.14481e-006
Heightened Def Con from 1.14484e-006 to 1.14586e-006
Heightened Def Con from 1.14595e-006 ++++to 1.15407e-006
Heightened Def Con from 1.15599e-006 ++to 1.16111e-006
Heightened Def Con from 1.16193e-006 to 1.16395e-006
Heightened Def Con from 1.16511e-006 +to 1.16724e-006
Heightened Def Con from 1.16992e-006 ++to 1.17405e-006
Heightened Def Con from 1.17458e-006 +to 1.1767e-006
Heightened Def Con from 1.17775e-006 ++to 1.18188e-006
Heightened Def Con from 1.18291e-006 +to 1.19304e-006
Heightened Def Con from 1.19522e-006 +to 1.19735e-006
Heightened Def Con from 1.19822e-006 +to 1.20024e-006
Heightened Def Con from 1.20135e-006 ++to 1.20535e-006
Heightened Def Con from 1.20537e-006 to 1.2065e-006
Heightened Def Con from 1.20778e-006 +to 1.2099e-006
Heightened Def Con from 1.21011e-006 to 1.21223e-006
Heightened Def Con from 1.21427e-006 ++++to 1.22428e-006
Heightened Def Con from 1.22527e-006 to 1.2294e-006
Heightened Def Con from 1.23707e-006 to 1.2382e-006
Heightened Def Con from 1.2506e-006 +to 1.25262e-006
Heightened Def Con from 1.25376e-006 +to 1.25588e-006
Heightened Def Con from 1.25645e-006 to 1.26357e-006
Heightened Def Con from 1.26562e-006 +to 1.27175e-006
Heightened Def Con from 1.27189e-006 to 1.27491e-006
Heightened Def Con from 1.27842e-006 to 1.27955e-006
Heightened Def Con from 1.28182e-006 to 1.28683e-006
Heightened Def Con from 1.29125e-006 ++to 1.29426e-006
Heightened Def Con from 1.29428e-006 to 1.29841e-006
Heightened Def Con from 1.29854e-006 to 1.30654e-006
Heightened Def Con from 1.30784e-006 to 1.30897e-006
Heightened Def Con from 1.31105e-006 to 1.31318e-006
Heightened Def Con from 1.32115e-006 ++to 1.32417e-006
Heightened Def Con from 1.32558e-006 +to 1.33159e-006
Heightened Def Con from 1.33169e-006 to 1.33369e-006
Heightened Def Con from 1.33438e-006 +++to 1.34138e-006
Heightened Def Con from 1.34664e-006 +++to 1.35176e-006
Heightened Def Con from 1.35176e-006 to 1.35689e-006
Heightened Def Con from 1.3571e-006 to 1.35911e-006
Heightened Def Con from 1.35917e-006 to 1.36229e-006
Heightened Def Con from 1.3628e-006 to 1.36392e-006
Heightened Def Con from 1.3652e-006 to 1.36633e-006
Heightened Def Con from 1.36811e-006 to 1.36924e-006
Heightened Def Con from 1.37593e-006 ++to 1.37906e-006
Heightened Def Con from 1.38035e-006 ++to 1.38335e-006
Heightened Def Con from 1.38341e-006 ++to 1.38953e-006
Heightened Def Con from 1.38959e-006 to 1.39271e-006
Heightened Def Con from 1.39388e-006 to 1.39488e-006
Heightened Def Con from 1.40039e-006 ++to 1.40341e-006
Heightened Def Con from 1.40714e-006 +to 1.41127e-006
Heightened Def Con from 1.41203e-006 to 1.41415e-006
Heightened Def Con from 1.41415e-006 to 1.41617e-006
Heightened Def Con from 1.42353e-006 ++to 1.42654e-006
Heightened Def Con from 1.42739e-006 +to 1.42941e-006
Heightened Def Con from 1.43283e-006 ++to 1.43595e-006
Heightened Def Con from 1.43846e-006 +to 1.44059e-006
Heightened Def Con from 1.441e-006 ++to 1.44602e-006
Heightened Def Con from 1.44674e-006 +to 1.44886e-006
Heightened Def Con from 1.44944e-006 ++to 1.45344e-006
Heightened Def Con from 1.45506e-006 +to 1.45806e-006
Heightened Def Con from 1.45909e-006 to 1.46021e-006
Heightened Def Con from 1.46061e-006 ++to 1.46674e-006
Heightened Def Con from 1.46678e-006 to 1.46791e-006
Heightened Def Con from 1.46872e-006 +to 1.47072e-006
Heightened Def Con from 1.47131e-006 to 1.47344e-006
Heightened Def Con from 1.47576e-006 ++to 1.47988e-006
Heightened Def Con from 1.48051e-006 to 1.48152e-006
Heightened Def Con from 1.48508e-006 +to 1.48821e-006
Heightened Def Con from 1.48877e-006 +to 1.49689e-006
Heightened Def Con from 1.50217e-006 ++to 1.50629e-006
Heightened Def Con from 1.507e-006 to 1.508e-006
Heightened Def Con from 1.508e-006 +to 1.50914e-006
Heightened Def Con from 1.5123e-006 +++to 1.5183e-006
Heightened Def Con from 1.51876e-006 ++to 1.52477e-006
Heightened Def Con from 1.52499e-006 +to 1.52911e-006
Heightened Def Con from 1.5347e-006 to 1.53583e-006
Heightened Def Con from 1.54396e-006 +++to 1.55596e-006
Heightened Def Con from 1.55596e-006 to 1.56197e-006
Heightened Def Con from 1.56642e-006 ++to 1.57254e-006
Heightened Def Con from 1.57351e-006 ++to 1.57651e-006
Heightened Def Con from 1.57651e-006 to 1.57753e-006
Heightened Def Con from 1.5776e-006 ++to 1.58362e-006
Heightened Def Con from 1.58368e-006 to 1.5848e-006
Heightened Def Con from 1.5848e-006 to 1.5898e-006
Heightened Def Con from 1.5908e-006 +++to 1.59692e-006
Heightened Def Con from 1.60337e-006 to 1.60439e-006
Heightened Def Con from 1.60478e-006 to 1.60778e-006
Heightened Def Con from 1.61231e-006 ++to 1.61831e-006
Heightened Def Con from 1.61831e-006 to 1.61944e-006
Heightened Def Con from 1.62244e-006 to 1.62657e-006
Heightened Def Con from 1.62725e-006 to 1.63025e-006
Heightened Def Con from 1.63025e-006 to 1.63526e-006
Heightened Def Con from 1.63526e-006 to 1.63551e-006
Heightened Def Con from 1.63684e-006 to 1.64097e-006
Heightened Def Con from 1.64801e-006 ++to 1.65114e-006
Heightened Def Con from 1.65395e-006 ++to 1.65707e-006
Heightened Def Con from 1.66028e-006 +to 1.6664e-006
Heightened Def Con from 1.67532e-006 ++to 1.68344e-006
Heightened Def Con from 1.68344e-006 to 1.68457e-006
Heightened Def Con from 1.68457e-006 to 1.6877e-006
Heightened Def Con from 1.68897e-006 to 1.68997e-006
Heightened Def Con from 1.68997e-006 to 1.69797e-006
Heightened Def Con from 1.69902e-006 to 1.70715e-006
Heightened Def Con from 1.70715e-006 to 1.71115e-006
Heightened Def Con from 1.71247e-006 to 1.7146e-006
Heightened Def Con from 1.71996e-006 ++to 1.72509e-006
Heightened Def Con from 1.73219e-006 +to 1.73431e-006
Heightened Def Con from 1.73696e-006 +to 1.73908e-006
Heightened Def Con from 1.73914e-006 +to 1.74116e-006
Heightened Def Con from 1.74118e-006 +++to 1.74618e-006
Heightened Def Con from 1.74618e-006 to 1.75018e-006
Heightened Def Con from 1.75238e-006 ++to 1.7555e-006
Heightened Def Con from 1.75573e-006 to 1.75885e-006
Heightened Def Con from 1.7604e-006 +to 1.76352e-006
Heightened Def Con from 1.76469e-006 +++to 1.77082e-006
Heightened Def Con from 1.77194e-006 +to 1.77819e-006
Heightened Def Con from 1.77826e-006 to 1.78127e-006
Heightened Def Con from 1.78133e-006 to 1.78833e-006
Heightened Def Con from 1.791e-006 +to 1.79712e-006
Heightened Def Con from 1.80234e-006 ++to 1.80547e-006
Heightened Def Con from 1.80982e-006 ++to 1.81384e-006
Heightened Def Con from 1.81565e-006 +to 1.82477e-006
Heightened Def Con from 1.82769e-006 +to 1.82971e-006
Heightened Def Con from 1.83134e-006 +to 1.83347e-006
Heightened Def Con from 1.83637e-006 ++to 1.83939e-006
Heightened Def Con from 1.84178e-006 ++to 1.84691e-006
Heightened Def Con from 1.84802e-006 to 1.84915e-006
Heightened Def Con from 1.84968e-006 to 1.85068e-006
Heightened Def Con from 1.85068e-006 +to 1.85681e-006
Heightened Def Con from 1.85688e-006 to 1.86e-006
Heightened Def Con from 1.86447e-006 ++to 1.8696e-006
Heightened Def Con from 1.86966e-006 to 1.87167e-006
Heightened Def Con from 1.87171e-006 to 1.87371e-006
Heightened Def Con from 1.87488e-006 ++to 1.88288e-006
Heightened Def Con from 1.8836e-006 to 1.88572e-006
Heightened Def Con from 1.88705e-006 ++to 1.89006e-006
Heightened Def Con from 1.89118e-006 to 1.8933e-006
Heightened Def Con from 1.89454e-006 +to 1.89667e-006
Heightened Def Con from 1.89679e-006 to 1.89779e-006
Heightened Def Con from 1.89779e-006 to 1.90091e-006
Heightened Def Con from 1.90097e-006 to 1.90209e-006
Heightened Def Con from 1.90221e-006 +to 1.90733e-006
Heightened Def Con from 1.90851e-006 to 1.91363e-006
Heightened Def Con from 1.91568e-006 to 1.92268e-006
Heightened Def Con from 1.92268e-006 to 1.92668e-006
Heightened Def Con from 1.92887e-006 ++to 1.93788e-006
Heightened Def Con from 1.93792e-006 to 1.93904e-006
Heightened Def Con from 1.94057e-006 ++to 1.94357e-006
Heightened Def Con from 1.94357e-006 +to 1.9457e-006
Heightened Def Con from 1.9457e-006 to 1.9467e-006
Heightened Def Con from 1.94706e-006 to 1.95006e-006
Heightened Def Con from 1.95006e-006 to 1.95119e-006
Heightened Def Con from 1.95184e-006 to 1.95297e-006
Heightened Def Con from 1.95526e-006 to 1.95628e-006
Heightened Def Con from 1.9564e-006 +to 1.96052e-006
Heightened Def Con from 1.96479e-006 +to 1.96692e-006
Heightened Def Con from 1.97078e-006 ++++to 1.9829e-006
Heightened Def Con from 1.98297e-006 to 1.9851e-006
Heightened Def Con from 1.98544e-006 to 1.98757e-006
Heightened Def Con from 1.98873e-006 ++to 1.99685e-006
Heightened Def Con from 2.00286e-006 +++to 2.01786e-006
Heightened Def Con from 2.01986e-006 to 2.02086e-006
Heightened Def Con from 2.0238e-006 +++to 2.02892e-006
Heightened Def Con from 2.03225e-006 +++to 2.04425e-006
Heightened Def Con from 2.04987e-006 ++to 2.054e-006
Heightened Def Con from 2.05461e-006 to 2.05661e-006
Heightened Def Con from 2.05684e-006 ++to 2.06396e-006
Heightened Def Con from 2.06403e-006 to 2.06703e-006
Heightened Def Con from 2.07016e-006 ++to 2.07317e-006
Heightened Def Con from 2.0739e-006 to 2.07603e-006
Heightened Def Con from 2.07614e-006 to 2.07715e-006
Heightened Def Con from 2.07764e-006 +to 2.07977e-006
Heightened Def Con from 2.08264e-006 ++to 2.08576e-006
Heightened Def Con from 2.08623e-006 +++to 2.09135e-006
Heightened Def Con from 2.09276e-006 to 2.09389e-006
Heightened Def Con from 2.09411e-006 ++to 2.10324e-006
Heightened Def Con from 2.10331e-006 to 2.10443e-006
Heightened Def Con from 2.10443e-006 to 2.10843e-006
Heightened Def Con from 2.11388e-006 ++to 2.11801e-006
Heightened Def Con from 2.11808e-006 to 2.1191e-006
Heightened Def Con from 2.11943e-006 +to 2.12145e-006
Heightened Def Con from 2.12145e-006 ++to 2.12657e-006
Heightened Def Con from 2.12973e-006 to 2.13185e-006
Heightened Def Con from 2.13197e-006 +to 2.13609e-006
Heightened Def Con from 2.13615e-006 to 2.13815e-006
Heightened Def Con from 2.13906e-006 +to 2.14119e-006
Heightened Def Con from 2.14236e-006 to 2.14336e-006
Heightened Def Con from 2.14603e-006 ++to 2.15316e-006
Heightened Def Con from 2.1533e-006 to 2.15443e-006
Heightened Def Con from 2.15505e-006 to 2.16017e-006
Heightened Def Con from 2.17201e-006 ++++to 2.18402e-006
Heightened Def Con from 2.1845e-006 to 2.18652e-006
Heightened Def Con from 2.18656e-006 ++to 2.19156e-006
Heightened Def Con from 2.19156e-006 to 2.19458e-006
Heightened Def Con from 2.19566e-006 ++++to 2.20278e-006
Heightened Def Con from 2.20359e-006 +to 2.20571e-006
Heightened Def Con from 2.20631e-006 to 2.20844e-006
Heightened Def Con from 2.2097e-006 to 2.21071e-006
Heightened Def Con from 2.2173e-006 +++to 2.22432e-006
Heightened Def Con from 2.22439e-006 to 2.22539e-006
Heightened Def Con from 2.23204e-006 +++to 2.23906e-006
Heightened Def Con from 2.24086e-006 to 2.24198e-006
Heightened Def Con from 2.24282e-006 to 2.24394e-006
Heightened Def Con from 2.24416e-006 +to 2.24641e-006
Heightened Def Con from 2.24647e-006 ++to 2.24947e-006
Heightened Def Con from 2.24947e-006 to 2.25348e-006
Heightened Def Con from 2.25491e-006 to 2.25603e-006
Heightened Def Con from 2.25649e-006 +to 2.26063e-006
Heightened Def Con from 2.26535e-006 ++to 2.27048e-006
Heightened Def Con from 2.27177e-006 +++to 2.27589e-006
Heightened Def Con from 2.27946e-006 +to 2.28158e-006
Heightened Def Con from 2.28319e-006 +to 2.28521e-006
Heightened Def Con from 2.28525e-006 to 2.28827e-006
Heightened Def Con from 2.29043e-006 ++to 2.29745e-006
Heightened Def Con from 2.29748e-006 to 2.2986e-006
Heightened Def Con from 2.2998e-006 ++to 2.30482e-006
Heightened Def Con from 2.30487e-006 to 2.30599e-006
Heightened Def Con from 2.306e-006 to 2.30812e-006
Heightened Def Con from 2.31054e-006 +to 2.31255e-006
Heightened Def Con from 2.31298e-006 to 2.31811e-006
Heightened Def Con from 2.3259e-006 to 2.3269e-006
Heightened Def Con from 2.3269e-006 +to 2.3279e-006
Heightened Def Con from 2.3279e-006 +to 2.33291e-006
Heightened Def Con from 2.33528e-006 +to 2.34241e-006
Heightened Def Con from 2.34484e-006 +to 2.34697e-006
Heightened Def Con from 2.34702e-006 +to 2.34902e-006
Heightened Def Con from 2.35348e-006 +++to 2.3606e-006
Heightened Def Con from 2.3606e-006 to 2.36573e-006
Heightened Def Con from 2.36639e-006 to 2.37051e-006
Heightened Def Con from 2.37057e-006 to 2.37557e-006
Heightened Def Con from 2.3779e-006 to 2.3849e-006
Heightened Def Con from 2.39144e-006 +++to 2.39557e-006
Heightened Def Con from 2.39677e-006 to 2.3989e-006
Heightened Def Con from 2.39944e-006 ++to 2.40244e-006
Heightened Def Con from 2.40463e-006 ++to 2.42263e-006
Heightened Def Con from 2.425e-006 to 2.42613e-006
Heightened Def Con from 2.43241e-006 ++to 2.43843e-006
Heightened Def Con from 2.4385e-006 to 2.43962e-006
Heightened Def Con from 2.43963e-006 to 2.44275e-006
Heightened Def Con from 2.44279e-006 +to 2.44691e-006
Heightened Def Con from 2.44697e-006 to 2.44909e-006
Heightened Def Con from 2.45296e-006 to 2.45408e-006
Heightened Def Con from 2.45409e-006 to 2.45921e-006
Heightened Def Con from 2.46412e-006 +to 2.46624e-006
Heightened Def Con from 2.46947e-006 +to 2.4726e-006
Heightened Def Con from 2.4726e-006 to 2.47472e-006
Heightened Def Con from 2.47523e-006 +to 2.47736e-006
Heightened Def Con from 2.4775e-006 to 2.47863e-006
Heightened Def Con from 2.47942e-006 +to 2.48244e-006
Heightened Def Con from 2.48251e-006 ++to 2.48852e-006
Heightened Def Con from 2.49033e-006 +to 2.49258e-006
Heightened Def Con from 2.49264e-006 to 2.49577e-006
Heightened Def Con from 2.50076e-006 ++to 2.50689e-006
Heightened Def Con from 2.50729e-006 to 2.50942e-006
Heightened Def Con from 2.51115e-006 +to 2.51428e-006
Heightened Def Con from 2.51588e-006 ++to 2.525e-006
Heightened Def Con from 2.52505e-006 to 2.52817e-006
Heightened Def Con from 2.52902e-006 +to 2.53304e-006
Heightened Def Con from 2.53978e-006 ++to 2.5449e-006
Heightened Def Con from 2.54785e-006 +++to 2.55298e-006
Heightened Def Con from 2.55422e-006 to 2.55547e-006
Heightened Def Con from 2.55551e-006 to 2.55664e-006
Heightened Def Con from 2.56016e-006 to 2.56128e-006
Heightened Def Con from 2.56128e-006 +++++to 2.57741e-006
Heightened Def Con from 2.57802e-006 to 2.58502e-006
Heightened Def Con from 2.58502e-006 to 2.59002e-006
Heightened Def Con from 2.59006e-006 to 2.59506e-006
Heightened Def Con from 2.59882e-006 to 2.60383e-006
Heightened Def Con from 2.61073e-006 to 2.61185e-006
Heightened Def Con from 2.61204e-006 +to 2.61429e-006
Heightened Def Con from 2.61462e-006 ++to 2.61762e-006
Heightened Def Con from 2.61765e-006 +to 2.62765e-006
Heightened Def Con from 2.63e-006 +to 2.63712e-006
Heightened Def Con from 2.63862e-006 +to 2.64175e-006
Heightened Def Con from 2.64183e-006 to 2.64285e-006
Heightened Def Con from 2.64292e-006 ++to 2.65017e-006
Heightened Def Con from 2.65018e-006 to 2.65118e-006
Heightened Def Con from 2.65118e-006 to 2.6522e-006
Heightened Def Con from 2.65303e-006 +++to 2.65715e-006
Heightened Def Con from 2.6572e-006 ++to 2.66033e-006
Heightened Def Con from 2.66259e-006 ++to 2.66559e-006
Heightened Def Con from 2.66559e-006 +to 2.66761e-006
Heightened Def Con from 2.66864e-006 to 2.66977e-006
Heightened Def Con from 2.67154e-006 to 2.67254e-006
Heightened Def Con from 2.67254e-006 ++to 2.67568e-006
Heightened Def Con from 2.67637e-006 to 2.6785e-006
Heightened Def Con from 2.67869e-006 +to 2.6807e-006
Heightened Def Con from 2.68071e-006 to 2.68171e-006
Heightened Def Con from 2.68171e-006 +to 2.68471e-006
Heightened Def Con from 2.68568e-006 +to 2.68781e-006
Heightened Def Con from 2.69561e-006 +to 2.70274e-006
Heightened Def Con from 2.7038e-006 to 2.70481e-006
Heightened Def Con from 2.70599e-006 ++++to 2.71301e-006
Heightened Def Con from 2.71411e-006 to 2.71524e-006
Heightened Def Con from 2.71626e-006 ++++++to 2.73439e-006
Heightened Def Con from 2.73468e-006 to 2.73581e-006
Heightened Def Con from 2.73594e-006 +to 2.74407e-006
Heightened Def Con from 2.74436e-006 to 2.74838e-006
Heightened Def Con from 2.74927e-006 to 2.75139e-006
Heightened Def Con from 2.75567e-006 +to 2.75867e-006
Heightened Def Con from 2.76028e-006 ++to 2.76429e-006
Heightened Def Con from 2.76549e-006 +to 2.76961e-006
Heightened Def Con from 2.77161e-006 +to 2.77573e-006
Heightened Def Con from 2.77581e-006 to 2.77694e-006
Heightened Def Con from 2.77813e-006 to 2.78626e-006
Heightened Def Con from 2.78646e-006 to 2.78771e-006
Heightened Def Con from 2.78775e-006 to 2.78887e-006
Heightened Def Con from 2.79074e-006 +to 2.79374e-006
Heightened Def Con from 2.79435e-006 +to 2.79735e-006
Heightened Def Con from 2.79735e-006 +to 2.79948e-006
Heightened Def Con from 2.79948e-006 to 2.80048e-006
Heightened Def Con from 2.80048e-006 to 2.80261e-006
Heightened Def Con from 2.80398e-006 to 2.80498e-006
Heightened Def Con from 2.80498e-006 to 2.80499e-006
Heightened Def Con from 2.80499e-006 ++to 2.81126e-006
Heightened Def Con from 2.81126e-006 to 2.81226e-006
Heightened Def Con from 2.81226e-006 to 2.81639e-006
Heightened Def Con from 2.81848e-006 to 2.8215e-006
Heightened Def Con from 2.82215e-006 to 2.82428e-006
Heightened Def Con from 2.82478e-006 +to 2.82678e-006
Heightened Def Con from 2.82792e-006 to 2.82905e-006
Heightened Def Con from 2.82938e-006 to 2.8304e-006
Heightened Def Con from 2.83833e-006 +++to 2.84234e-006
Heightened Def Con from 2.84351e-006 ++to 2.84676e-006
Heightened Def Con from 2.85043e-006 ++to 2.85355e-006
Heightened Def Con from 2.85455e-006 ++to 2.85768e-006
Heightened Def Con from 2.85878e-006 to 2.85979e-006
Heightened Def Con from 2.86023e-006 to 2.86735e-006
Heightened Def Con from 2.86804e-006 to 2.87417e-006
Heightened Def Con from 2.87479e-006 to 2.87592e-006
Heightened Def Con from 2.87598e-006 +to 2.88211e-006
Heightened Def Con from 2.88284e-006 to 2.88786e-006
Heightened Def Con from 2.88791e-006 to 2.89491e-006
Heightened Def Con from 2.89499e-006 to 2.89711e-006
Heightened Def Con from 2.89763e-006 +to 2.90275e-006
Heightened Def Con from 2.90496e-006 to 2.90596e-006
Heightened Def Con from 2.90596e-006 +to 2.91309e-006
Heightened Def Con from 2.91329e-006 to 2.91629e-006
Heightened Def Con from 2.91852e-006 +to 2.92064e-006
Heightened Def Con from 2.92275e-006 +to 2.92488e-006
Heightened Def Con from 2.92488e-006 ++to 2.92788e-006
Heightened Def Con from 2.92806e-006 +to 2.93008e-006
Heightened Def Con from 2.93011e-006 +to 2.94111e-006
Heightened Def Con from 2.94337e-006 to 2.94439e-006
Heightened Def Con from 2.94483e-006 to 2.95095e-006
Heightened Def Con from 2.95112e-006 to 2.95624e-006
Heightened Def Con from 2.95792e-006 to 2.96005e-006
Heightened Def Con from 2.96103e-006 to 2.96215e-006
Heightened Def Con from 2.96561e-006 ++to 2.96973e-006
Heightened Def Con from 2.97138e-006 +to 2.98138e-006
Heightened Def Con from 2.98196e-006 +to 2.99209e-006
Heightened Def Con from 2.9931e-006 +to 2.99722e-006
Heightened Def Con from 2.99747e-006 to 2.99959e-006
Heightened Def Con from 3.0007e-006 +to 3.00372e-006
Heightened Def Con from 3.0062e-006 +to 3.01332e-006
Heightened Def Con from 3.01549e-006 to 3.01661e-006
Heightened Def Con from 3.01931e-006 +to 3.02144e-006
Heightened Def Con from 3.02194e-006 ++to 3.02707e-006
Heightened Def Con from 3.02937e-006 ++to 3.0355e-006
Heightened Def Con from 3.03554e-006 to 3.03966e-006
Heightened Def Con from 3.04256e-006 ++to 3.04556e-006
Heightened Def Con from 3.04855e-006 to 3.05157e-006
Heightened Def Con from 3.05321e-006 to 3.05623e-006
Heightened Def Con from 3.05698e-006 +to 3.062e-006
Heightened Def Con from 3.0622e-006 to 3.06933e-006
Heightened Def Con from 3.07055e-006 to 3.07168e-006
Heightened Def Con from 3.0734e-006 +to 3.08052e-006
Heightened Def Con from 3.08324e-006 +++to 3.08825e-006
Heightened Def Con from 3.08842e-006 to 3.09755e-006
Heightened Def Con from 3.09805e-006 to 3.10318e-006
Heightened Def Con from 3.10577e-006 ++to 3.10977e-006
Heightened Def Con from 3.10977e-006 to 3.1109e-006
Heightened Def Con from 3.11109e-006 to 3.12109e-006
Heightened Def Con from 3.12214e-006 to 3.12327e-006
Heightened Def Con from 3.12608e-006 +to 3.12821e-006
Heightened Def Con from 3.12828e-006 ++to 3.13841e-006
Heightened Def Con from 3.14025e-006 ++to 3.1485e-006
Heightened Def Con from 3.14857e-006 to 3.15169e-006
Heightened Def Con from 3.1558e-006 ++to 3.15881e-006
Heightened Def Con from 3.15881e-006 to 3.15982e-006
Heightened Def Con from 3.16275e-006 ++to 3.16875e-006
Heightened Def Con from 3.17054e-006 +++to 3.17555e-006
Heightened Def Con from 3.17578e-006 to 3.17692e-006
Heightened Def Con from 3.17732e-006 ++to 3.18244e-006
Heightened Def Con from 3.18316e-006 ++to 3.18717e-006
Heightened Def Con from 3.18721e-006 to 3.19433e-006
Heightened Def Con from 3.19751e-006 +to 3.19964e-006
Heightened Def Con from 3.19964e-006 +to 3.20277e-006
Heightened Def Con from 3.20374e-006 +to 3.20586e-006
Heightened Def Con from 3.20616e-006 to 3.20928e-006
Heightened Def Con from 3.21015e-006 +to 3.21215e-006
Heightened Def Con from 3.21215e-006 to 3.21417e-006
Heightened Def Con from 3.21453e-006 to 3.21653e-006
Heightened Def Con from 3.21655e-006 to 3.21768e-006
Heightened Def Con from 3.21779e-006 to 3.22292e-006
Heightened Def Con from 3.22497e-006 ++to 3.22899e-006
Heightened Def Con from 3.23404e-006 ++to 3.24016e-006
Heightened Def Con from 3.24231e-006 to 3.24331e-006
Heightened Def Con from 3.24331e-006 +to 3.24843e-006
Heightened Def Con from 3.25278e-006 ++to 3.25591e-006
Heightened Def Con from 3.25621e-006 ++to 3.25933e-006
Heightened Def Con from 3.26095e-006 to 3.26396e-006
Heightened Def Con from 3.26522e-006 +to 3.26935e-006
Heightened Def Con from 3.27311e-006 ++to 3.27624e-006
Heightened Def Con from 3.27624e-006 to 3.27936e-006
Heightened Def Con from 3.28189e-006 ++to 3.28602e-006
Heightened Def Con from 3.28623e-006 to 3.29135e-006
Heightened Def Con from 3.29292e-006 +to 3.29904e-006
Heightened Def Con from 3.29962e-006 +to 3.30274e-006
Heightened Def Con from 3.30414e-006 to 3.30626e-006
Heightened Def Con from 3.30748e-006 +to 3.31261e-006
Heightened Def Con from 3.31428e-006 to 3.3234e-006
Heightened Def Con from 3.32592e-006 to 3.32805e-006
Heightened Def Con from 3.33486e-006 ++to 3.33898e-006
Heightened Def Con from 3.33939e-006 +++to 3.34451e-006
Heightened Def Con from 3.34511e-006 to 3.34723e-006
Heightened Def Con from 3.35038e-006 +to 3.3545e-006
Heightened Def Con from 3.35457e-006 +to 3.35858e-006
Heightened Def Con from 3.35861e-006 to 3.35973e-006
Heightened Def Con from 3.36188e-006 ++to 3.36889e-006
Heightened Def Con from 3.36939e-006 +to 3.37851e-006
Heightened Def Con from 3.38159e-006 +to 3.38561e-006
Heightened Def Con from 3.38935e-006 +++to 3.39535e-006
Heightened Def Con from 3.39573e-006 to 3.39885e-006
Heightened Def Con from 3.40263e-006 to 3.40376e-006
Heightened Def Con from 3.40386e-006 to 3.40798e-006
Heightened Def Con from 3.40985e-006 +to 3.41187e-006
Heightened Def Con from 3.41487e-006 +to 3.41799e-006
Heightened Def Con from 3.41887e-006 ++to 3.42187e-006
Heightened Def Con from 3.42187e-006 to 3.42589e-006
Heightened Def Con from 3.42865e-006 to 3.42978e-006
Heightened Def Con from 3.42978e-006 to 3.4319e-006
Heightened Def Con from 3.43205e-006 +to 3.43405e-006
Heightened Def Con from 3.43405e-006 to 3.43506e-006
Heightened Def Con from 3.43508e-006 +to 3.4391e-006
Heightened Def Con from 3.43954e-006 to 3.44055e-006
Heightened Def Con from 3.44443e-006 to 3.44743e-006
Heightened Def Con from 3.44842e-006 to 3.45742e-006
Heightened Def Con from 3.45764e-006 to 3.46564e-006
Heightened Def Con from 3.46926e-006 +to 3.47338e-006
Heightened Def Con from 3.47395e-006 to 3.48307e-006
Heightened Def Con from 3.48537e-006 ++to 3.48838e-006
Heightened Def Con from 3.4897e-006 +to 3.49172e-006
Heightened Def Con from 3.49265e-006 to 3.49867e-006
Heightened Def Con from 3.50088e-006 +to 3.50601e-006
Heightened Def Con from 3.5077e-006 to 3.5177e-006
Heightened Def Con from 3.51789e-006 to 3.51914e-006
Heightened Def Con from 3.51914e-006 to 3.52514e-006
Heightened Def Con from 3.52628e-006 to 3.5274e-006
Heightened Def Con from 3.52922e-006 to 3.53023e-006
Heightened Def Con from 3.53256e-006 ++to 3.53558e-006
Heightened Def Con from 3.53725e-006 to 3.53837e-006
Heightened Def Con from 3.53853e-006 +to 3.54665e-006
Heightened Def Con from 3.54756e-006 to 3.55057e-006
Heightened Def Con from 3.55113e-006 to 3.56025e-006
Heightened Def Con from 3.56359e-006 ++to 3.56859e-006
Heightened Def Con from 3.5698e-006 +to 3.57182e-006
Heightened Def Con from 3.572e-006 +to 3.57502e-006
Heightened Def Con from 3.57515e-006 +to 3.57827e-006
Heightened Def Con from 3.57984e-006 to 3.58196e-006
Heightened Def Con from 3.58305e-006 ++to 3.58807e-006
Heightened Def Con from 3.58859e-006 +to 3.59061e-006
Heightened Def Con from 3.59111e-006 ++to 3.59824e-006
Heightened Def Con from 3.6026e-006 to 3.60372e-006
Heightened Def Con from 3.6041e-006 to 3.60622e-006
Heightened Def Con from 3.60955e-006 +to 3.61967e-006
Heightened Def Con from 3.62773e-006 to 3.62885e-006
Heightened Def Con from 3.63333e-006 +++to 3.63845e-006
Heightened Def Con from 3.6389e-006 ++to 3.64903e-006
Heightened Def Con from 3.65396e-006 ++++to 3.66408e-006
Heightened Def Con from 3.66574e-006 to 3.66687e-006
Heightened Def Con from 3.66821e-006 +++to 3.67434e-006
Heightened Def Con from 3.6753e-006 +to 3.67842e-006
Heightened Def Con from 3.67848e-006 to 3.6795e-006
Heightened Def Con from 3.68472e-006 ++to 3.68885e-006
Heightened Def Con from 3.69079e-006 +++to 3.69591e-006
Heightened Def Con from 3.69763e-006 to 3.69875e-006
Heightened Def Con from 3.69875e-006 to 3.69977e-006
Heightened Def Con from 3.70089e-006 to 3.70401e-006
Heightened Def Con from 3.7047e-006 ++to 3.70795e-006
Heightened Def Con from 3.70916e-006 +to 3.71229e-006
Heightened Def Con from 3.7136e-006 ++to 3.71662e-006
Heightened Def Con from 3.71831e-006 +to 3.72244e-006
Heightened Def Con from 3.72805e-006 ++to 3.73117e-006
Heightened Def Con from 3.73196e-006 ++to 3.73708e-006
Heightened Def Con from 3.73748e-006 to 3.7456e-006
Heightened Def Con from 3.74687e-006 to 3.752e-006
Heightened Def Con from 3.75207e-006 to 3.75907e-006
Heightened Def Con from 3.76111e-006 to 3.76312e-006
Heightened Def Con from 3.76413e-006 +to 3.76715e-006
Heightened Def Con from 3.76896e-006 +++to 3.77398e-006
Heightened Def Con from 3.774e-006 to 3.777e-006
Heightened Def Con from 3.777e-006 to 3.77912e-006
Heightened Def Con from 3.77967e-006 +to 3.78167e-006
Heightened Def Con from 3.78574e-006 +++to 3.79187e-006
Heightened Def Con from 3.7931e-006 to 3.7951e-006
Heightened Def Con from 3.79852e-006 +to 3.80464e-006
Heightened Def Con from 3.8079e-006 +to 3.81903e-006
Heightened Def Con from 3.82407e-006 +to 3.83019e-006
Heightened Def Con from 3.83078e-006 to 3.8318e-006
Heightened Def Con from 3.83267e-006 to 3.8348e-006
Heightened Def Con from 3.83754e-006 ++++to 3.84766e-006
Heightened Def Con from 3.84879e-006 to 3.8498e-006
Heightened Def Con from 3.84991e-006 +to 3.85292e-006
Heightened Def Con from 3.85504e-006 +to 3.85816e-006
Heightened Def Con from 3.85997e-006 +to 3.87297e-006
Heightened Def Con from 3.87297e-006 to 3.8751e-006
Heightened Def Con from 3.87527e-006 to 3.87627e-006
Heightened Def Con from 3.87627e-006 to 3.88227e-006
Heightened Def Con from 3.88245e-006 to 3.88945e-006
Heightened Def Con from 3.88946e-006 to 3.89348e-006
Heightened Def Con from 3.89598e-006 to 3.90111e-006
Heightened Def Con from 3.90789e-006 +++to 3.91701e-006
Heightened Def Con from 3.91763e-006 +to 3.92375e-006
Heightened Def Con from 3.92389e-006 to 3.93289e-006
Heightened Def Con from 3.93315e-006 to 3.94028e-006
Heightened Def Con from 3.94044e-006 to 3.94171e-006
Heightened Def Con from 3.94605e-006 ++to 3.95618e-006
Heightened Def Con from 3.9575e-006 +to 3.96063e-006
Heightened Def Con from 3.96169e-006 +to 3.96382e-006
Heightened Def Con from 3.9674e-006 +++to 3.97465e-006
Heightened Def Con from 3.97472e-006 to 3.97884e-006
Heightened Def Con from 3.98072e-006 to 3.98172e-006
Heightened Def Con from 3.98172e-006 to 3.98274e-006
Heightened Def Con from 3.98307e-006 +to 3.9872e-006
Heightened Def Con from 3.98739e-006 to 3.99251e-006
Heightened Def Con from 3.99258e-006 to 3.9936e-006
Heightened Def Con from 3.99662e-006 to 3.99975e-006
Heightened Def Con from 3.9998e-006 to 4.00093e-006
Heightened Def Con from 4.00198e-006 ++to 4.0051e-006
Heightened Def Con from 4.0051e-006 to 4.0071e-006
Heightened Def Con from 4.00715e-006 to 4.00816e-006
Heightened Def Con from 4.00875e-006 +to 4.01487e-006
Heightened Def Con from 4.0186e-006 to 4.0196e-006
Heightened Def Con from 4.0196e-006 ++to 4.02572e-006
Heightened Def Con from 4.02629e-006 to 4.03629e-006
Heightened Def Con from 4.0375e-006 ++to 4.04251e-006
Heightened Def Con from 4.04251e-006 to 4.04864e-006
Heightened Def Con from 4.05496e-006 +++to 4.06109e-006
Heightened Def Con from 4.06282e-006 to 4.06407e-006
Heightened Def Con from 4.06899e-006 ++to 4.07211e-006
Heightened Def Con from 4.07381e-006 +to 4.07793e-006
Heightened Def Con from 4.07814e-006 +to 4.09514e-006
Heightened Def Con from 4.10024e-006 to 4.10137e-006
Heightened Def Con from 4.10954e-006 +++to 4.11767e-006
Heightened Def Con from 4.11831e-006 +to 4.12043e-006
Heightened Def Con from 4.12166e-006 ++to 4.12778e-006
Heightened Def Con from 4.12778e-006 to 4.1328e-006
Heightened Def Con from 4.13315e-006 +to 4.13578e-006
Heightened Def Con from 4.13637e-006 to 4.14049e-006
Heightened Def Con from 4.14194e-006 to 4.14406e-006
Heightened Def Con from 4.14415e-006 to 4.14516e-006
Heightened Def Con from 4.14613e-006 +to 4.14913e-006
Heightened Def Con from 4.15306e-006 +++++to 4.16506e-006
Heightened Def Con from 4.16519e-006 to 4.16644e-006
Heightened Def Con from 4.16669e-006 to 4.16881e-006
Heightened Def Con from 4.16982e-006 to 4.17094e-006
Heightened Def Con from 4.17603e-006 +to 4.17816e-006
Heightened Def Con from 4.17837e-006 +to 4.18149e-006
Heightened Def Con from 4.18223e-006 to 4.18335e-006
Heightened Def Con from 4.18521e-006 to 4.18623e-006
Heightened Def Con from 4.18709e-006 ++to 4.19109e-006
Heightened Def Con from 4.1911e-006 to 4.19222e-006
Heightened Def Con from 4.19588e-006 +to 4.199e-006
Heightened Def Con from 4.20022e-006 to 4.20122e-006
Heightened Def Con from 4.20122e-006 +++to 4.21224e-006
Heightened Def Con from 4.21334e-006 to 4.22434e-006
Heightened Def Con from 4.2258e-006 to 4.22781e-006
Heightened Def Con from 4.22805e-006 to 4.2293e-006
Heightened Def Con from 4.23204e-006 ++to 4.23506e-006
Heightened Def Con from 4.23951e-006 +++to 4.24852e-006
Heightened Def Con from 4.24873e-006 to 4.24985e-006
Heightened Def Con from 4.24985e-006 to 4.25098e-006
Heightened Def Con from 4.25098e-006 to 4.25211e-006
Heightened Def Con from 4.25229e-006 +to 4.26329e-006
Heightened Def Con from 4.26701e-006 ++to 4.27103e-006
Heightened Def Con from 4.27518e-006 ++to 4.2783e-006
Heightened Def Con from 4.28095e-006 ++to 4.28507e-006
Heightened Def Con from 4.28701e-006 +++to 4.29601e-006
Heightened Def Con from 4.29656e-006 +to 4.30157e-006
Heightened Def Con from 4.30338e-006 ++to 4.3064e-006
Heightened Def Con from 4.30693e-006 to 4.31006e-006
Heightened Def Con from 4.31289e-006 +to 4.31602e-006
Heightened Def Con from 4.31866e-006 to 4.32079e-006
Heightened Def Con from 4.32115e-006 ++to 4.33228e-006
Heightened Def Con from 4.33897e-006 ++++to 4.35197e-006
Heightened Def Con from 4.35432e-006 to 4.35632e-006
Heightened Def Con from 4.35632e-006 +to 4.35932e-006
Heightened Def Con from 4.35932e-006 to 4.36034e-006
Heightened Def Con from 4.36272e-006 ++to 4.36574e-006
Heightened Def Con from 4.36622e-006 to 4.36734e-006
Heightened Def Con from 4.36734e-006 to 4.36947e-006
Heightened Def Con from 4.37694e-006 ++to 4.37995e-006
Heightened Def Con from 4.38062e-006 +to 4.38263e-006
Heightened Def Con from 4.38288e-006 +to 4.39101e-006
Heightened Def Con from 4.39168e-006 +to 4.3937e-006
Heightened Def Con from 4.39479e-006 +to 4.39992e-006
Heightened Def Con from 4.40076e-006 to 4.40188e-006
Heightened Def Con from 4.403e-006 +++to 4.40902e-006
Heightened Def Con from 4.41106e-006 to 4.41208e-006
Heightened Def Con from 4.41344e-006 +to 4.41545e-006
Heightened Def Con from 4.41545e-006 to 4.42058e-006
Heightened Def Con from 4.42585e-006 ++to 4.43186e-006
Heightened Def Con from 4.43267e-006 to 4.43368e-006
Heightened Def Con from 4.4353e-006 ++to 4.44342e-006
Heightened Def Con from 4.44456e-006 ++to 4.45656e-006
Heightened Def Con from 4.45684e-006 to 4.46084e-006
Heightened Def Con from 4.46084e-006 +to 4.46498e-006
Heightened Def Con from 4.46568e-006 to 4.46681e-006
Heightened Def Con from 4.47159e-006 ++to 4.47559e-006
Heightened Def Con from 4.47719e-006 +to 4.48119e-006
Heightened Def Con from 4.48318e-006 +to 4.48931e-006
Heightened Def Con from 4.48972e-006 +to 4.49173e-006
Heightened Def Con from 4.49176e-006 to 4.49277e-006
Heightened Def Con from 4.4938e-006 to 4.49692e-006
Heightened Def Con from 4.49835e-006 to 4.49947e-006
Heightened Def Con from 4.50268e-006 ++to 4.5057e-006
Heightened Def Con from 4.50671e-006 ++to 4.51183e-006
Heightened Def Con from 4.51352e-006 to 4.51565e-006
Heightened Def Con from 4.51578e-006 to 4.5229e-006
Heightened Def Con from 4.52295e-006 to 4.52595e-006
Heightened Def Con from 4.52599e-006 to 4.52911e-006
Heightened Def Con from 4.53072e-006 to 4.53272e-006
Heightened Def Con from 4.53272e-006 to 4.53574e-006
Heightened Def Con from 4.539e-006 +++to 4.54612e-006
Heightened Def Con from 4.54707e-006 +to 4.54907e-006
Heightened Def Con from 4.55029e-006 +++to 4.55641e-006
Heightened Def Con from 4.55791e-006 to 4.55893e-006
Heightened Def Con from 4.55896e-006 +++to 4.56498e-006
Heightened Def Con from 4.56505e-006 to 4.56617e-006
Heightened Def Con from 4.56692e-006 to 4.56794e-006
Heightened Def Con from 4.56833e-006 to 4.57246e-006
Heightened Def Con from 4.57251e-006 to 4.57451e-006
Heightened Def Con from 4.5752e-006 to 4.57933e-006
Heightened Def Con from 4.58085e-006 +to 4.58497e-006
Heightened Def Con from 4.58504e-006 to 4.59106e-006
Heightened Def Con from 4.5915e-006 to 4.5925e-006
Heightened Def Con from 4.59267e-006 to 4.59369e-006
Heightened Def Con from 4.59527e-006 to 4.5994e-006
Heightened Def Con from 4.60111e-006 to 4.60424e-006
Heightened Def Con from 4.60516e-006 to 4.60829e-006
Heightened Def Con from 4.60841e-006 to 4.61641e-006
Heightened Def Con from 4.61671e-006 to 4.61773e-006
Heightened Def Con from 4.62172e-006 to 4.62273e-006
Heightened Def Con from 4.62378e-006 +to 4.62679e-006
Heightened Def Con from 4.62894e-006 +to 4.63107e-006
Heightened Def Con from 4.63113e-006 to 4.63526e-006
Heightened Def Con from 4.63686e-006 +to 4.63998e-006
Heightened Def Con from 4.64175e-006 to 4.65175e-006
Heightened Def Con from 4.65618e-006 +to 4.6622e-006
Heightened Def Con from 4.66606e-006 +to 4.66818e-006
Heightened Def Con from 4.67317e-006 to 4.6743e-006
Heightened Def Con from 4.67563e-006 to 4.67676e-006
Heightened Def Con from 4.67774e-006 +++to 4.68274e-006
Heightened Def Con from 4.68479e-006 +to 4.69379e-006
Heightened Def Con from 4.69546e-006 ++to 4.70371e-006
Heightened Def Con from 4.70476e-006 to 4.71389e-006
Heightened Def Con from 4.71424e-006 +to 4.71649e-006
Heightened Def Con from 4.72022e-006 ++to 4.72323e-006
Heightened Def Con from 4.72323e-006 to 4.72725e-006
Heightened Def Con from 4.72725e-006 to 4.72827e-006
Heightened Def Con from 4.72957e-006 +to 4.73957e-006
Heightened Def Con from 4.7429e-006 to 4.74403e-006
Heightened Def Con from 4.74404e-006 ++to 4.75604e-006
Heightened Def Con from 4.75623e-006 to 4.76225e-006
Heightened Def Con from 4.76306e-006 to 4.76607e-006
Heightened Def Con from 4.7663e-006 +to 4.76932e-006
Heightened Def Con from 4.7694e-006 to 4.77241e-006
Heightened Def Con from 4.77333e-006 to 4.77446e-006
Heightened Def Con from 4.77482e-006 to 4.78095e-006
Heightened Def Con from 4.78095e-006 to 4.78208e-006
Heightened Def Con from 4.785e-006 +to 4.78712e-006
Heightened Def Con from 4.79155e-006 ++to 4.79568e-006
Heightened Def Con from 4.79627e-006 to 4.79728e-006
Heightened Def Con from 4.79781e-006 ++++to 4.81693e-006
Heightened Def Con from 4.817e-006 to 4.81902e-006
Heightened Def Con from 4.82246e-006 ++to 4.83446e-006
Heightened Def Con from 4.83478e-006 to 4.83779e-006
Heightened Def Con from 4.83779e-006 to 4.84479e-006
Heightened Def Con from 4.84707e-006 +to 4.8512e-006
Heightened Def Con from 4.85189e-006 to 4.85401e-006
Heightened Def Con from 4.85614e-006 ++to 4.85926e-006
Heightened Def Con from 4.86213e-006 to 4.86313e-006
Heightened Def Con from 4.86313e-006 +++to 4.87013e-006
Heightened Def Con from 4.87013e-006 to 4.87513e-006
Heightened Def Con from 4.88273e-006 +to 4.88685e-006
Heightened Def Con from 4.88991e-006 +++to 4.89493e-006
Heightened Def Con from 4.89927e-006 +++to 4.90939e-006
Heightened Def Con from 4.91037e-006 +to 4.91249e-006
Heightened Def Con from 4.91345e-006 ++to 4.91858e-006
Heightened Def Con from 4.9218e-006 +++to 4.92593e-006
Heightened Def Con from 4.92654e-006 +to 4.92867e-006
Heightened Def Con from 4.92867e-006 +to 4.93479e-006
Heightened Def Con from 4.93519e-006 +to 4.93731e-006
Heightened Def Con from 4.94038e-006 +to 4.95038e-006
Heightened Def Con from 4.95058e-006 to 4.9547e-006
Heightened Def Con from 4.95835e-006 to 4.96735e-006
Heightened Def Con from 4.96775e-006 to 4.97675e-006
Heightened Def Con from 4.97675e-006 to 4.98075e-006
Heightened Def Con from 4.98842e-006 ++to 4.99854e-006
Heightened Def Con from 5e-006 +to 5.01101e-006
Heightened Def Con from 5.01343e-006 to 5.02045e-006
Heightened Def Con from 5.02072e-006 +to 5.02374e-006
Heightened Def Con from 5.02524e-006 +++to 5.03336e-006
Heightened Def Con from 5.03435e-006 ++to 5.03735e-006
Heightened Def Con from 5.03828e-006 to 5.04228e-006
Heightened Def Con from 5.04301e-006 to 5.04413e-006
Heightened Def Con from 5.04531e-006 to 5.04732e-006
Heightened Def Con from 5.05228e-006 to 5.05328e-006
Heightened Def Con from 5.05763e-006 ++to 5.06565e-006
Heightened Def Con from 5.06723e-006 to 5.07025e-006
Heightened Def Con from 5.07025e-006 to 5.0715e-006
Heightened Def Con from 5.07451e-006 +to 5.08164e-006
Heightened Def Con from 5.08173e-006 +to 5.09173e-006
Heightened Def Con from 5.09186e-006 to 5.09388e-006
Heightened Def Con from 5.0939e-006 to 5.1009e-006
Heightened Def Con from 5.10108e-006 to 5.10233e-006
Heightened Def Con from 5.10292e-006 +++to 5.10992e-006
Heightened Def Con from 5.11037e-006 ++to 5.1145e-006
Heightened Def Con from 5.11553e-006 +to 5.11865e-006
Heightened Def Con from 5.12154e-006 ++to 5.12556e-006
Heightened Def Con from 5.12632e-006 ++to 5.13245e-006
Heightened Def Con from 5.13252e-006 to 5.13364e-006
Heightened Def Con from 5.13469e-006 +to 5.13681e-006
Heightened Def Con from 5.13682e-006 +to 5.14782e-006
Heightened Def Con from 5.14805e-006 to 5.15006e-006
Heightened Def Con from 5.15172e-006 to 5.15485e-006
Heightened Def Con from 5.15525e-006 +++to 5.16326e-006
Heightened Def Con from 5.1652e-006 +to 5.16845e-006
Heightened Def Con from 5.17059e-006 to 5.17759e-006
Heightened Def Con from 5.17785e-006 to 5.18097e-006
Heightened Def Con from 5.18147e-006 to 5.18247e-006
Heightened Def Con from 5.18807e-006 +to 5.19719e-006
Heightened Def Con from 5.19888e-006 +to 5.214e-006
Heightened Def Con from 5.21406e-006 to 5.21518e-006
Heightened Def Con from 5.2153e-006 to 5.22043e-006
Heightened Def Con from 5.22222e-006 to 5.23024e-006
Heightened Def Con from 5.23044e-006 to 5.23344e-006
Heightened Def Con from 5.23848e-006 ++to 5.24361e-006
Heightened Def Con from 5.24483e-006 to 5.24608e-006
Heightened Def Con from 5.24785e-006 to 5.25086e-006
Heightened Def Con from 5.25092e-006 +to 5.25904e-006
Heightened Def Con from 5.26113e-006 to 5.26326e-006
Heightened Def Con from 5.26397e-006 to 5.27397e-006
Heightened Def Con from 5.27715e-006 to 5.28227e-006
Heightened Def Con from 5.28238e-006 to 5.28338e-006
Heightened Def Con from 5.28338e-006 to 5.28551e-006
Heightened Def Con from 5.28637e-006 to 5.28738e-006
Heightened Def Con from 5.29134e-006 +to 5.29346e-006
Heightened Def Con from 5.29459e-006 ++to 5.30271e-006
Heightened Def Con from 5.30271e-006 to 5.30384e-006
Heightened Def Con from 5.30504e-006 ++to 5.31105e-006
Heightened Def Con from 5.31672e-006 +to 5.32085e-006
Heightened Def Con from 5.3211e-006 ++to 5.32523e-006
Heightened Def Con from 5.32916e-006 +++to 5.3343e-006
Heightened Def Con from 5.33447e-006 to 5.3386e-006
Heightened Def Con from 5.33869e-006 to 5.34182e-006
Heightened Def Con from 5.34344e-006 +to 5.34856e-006
Heightened Def Con from 5.34856e-006 to 5.35069e-006
Heightened Def Con from 5.35584e-006 ++to 5.36497e-006
Heightened Def Con from 5.36497e-006 to 5.36609e-006
Heightened Def Con from 5.36999e-006 +to 5.37611e-006
Heightened Def Con from 5.37961e-006 ++++to 5.38774e-006
Heightened Def Con from 5.38802e-006 to 5.38914e-006
Heightened Def Con from 5.3896e-006 to 5.39172e-006
Heightened Def Con from 5.39254e-006 +to 5.39566e-006
Heightened Def Con from 5.39723e-006 +to 5.39936e-006
Heightened Def Con from 5.40039e-006 ++to 5.4064e-006
Heightened Def Con from 5.40669e-006 to 5.40881e-006
Heightened Def Con from 5.40888e-006 to 5.40988e-006
Heightened Def Con from 5.41078e-006 ++to 5.41791e-006
Heightened Def Con from 5.41793e-006 to 5.41895e-006
Heightened Def Con from 5.42027e-006 +to 5.4224e-006
Heightened Def Con from 5.42291e-006 ++to 5.42704e-006
Heightened Def Con from 5.42805e-006 to 5.43018e-006
Heightened Def Con from 5.43478e-006 +++to 5.4429e-006
Heightened Def Con from 5.44294e-006 to 5.44595e-006
Heightened Def Con from 5.44595e-006 to 5.44996e-006
Heightened Def Con from 5.45001e-006 to 5.45501e-006
Heightened Def Con from 5.45842e-006 +to 5.46155e-006
Heightened Def Con from 5.46264e-006 to 5.46476e-006
Heightened Def Con from 5.46547e-006 +to 5.4716e-006
Heightened Def Con from 5.47176e-006 to 5.47388e-006
Heightened Def Con from 5.47452e-006 to 5.47564e-006
Heightened Def Con from 5.47729e-006 to 5.48442e-006
Heightened Def Con from 5.48647e-006 +to 5.49449e-006
Heightened Def Con from 5.49482e-006 to 5.50195e-006
Heightened Def Con from 5.50195e-006 to 5.50307e-006
Heightened Def Con from 5.50593e-006 to 5.51006e-006
Heightened Def Con from 5.51094e-006 to 5.51994e-006
Heightened Def Con from 5.52749e-006 ++to 5.53162e-006
Heightened Def Con from 5.53345e-006 to 5.53645e-006
Heightened Def Con from 5.53853e-006 ++to 5.54253e-006
Heightened Def Con from 5.54254e-006 to 5.54355e-006
Heightened Def Con from 5.54523e-006 +to 5.54823e-006
Heightened Def Con from 5.54915e-006 ++to 5.55815e-006
Heightened Def Con from 5.55815e-006 to 5.56028e-006
Heightened Def Con from 5.56093e-006 ++to 5.56795e-006
Heightened Def Con from 5.56955e-006 ++to 5.58468e-006
Heightened Def Con from 5.58702e-006 ++to 5.59016e-006
Heightened Def Con from 5.5908e-006 +to 5.59282e-006
Heightened Def Con from 5.59433e-006 to 5.59546e-006
Heightened Def Con from 5.59988e-006 ++to 5.60301e-006
Heightened Def Con from 5.60633e-006 +to 5.61446e-006
Heightened Def Con from 5.61598e-006 to 5.617e-006
Heightened Def Con from 5.61944e-006 ++to 5.62257e-006
Heightened Def Con from 5.62359e-006 +++to 5.63171e-006
Heightened Def Con from 5.63348e-006 ++to 5.6386e-006
Heightened Def Con from 5.63861e-006 to 5.63962e-006
Heightened Def Con from 5.6397e-006 to 5.64183e-006
Heightened Def Con from 5.64208e-006 to 5.64709e-006
Heightened Def Con from 5.64712e-006 to 5.64824e-006
Heightened Def Con from 5.65337e-006 ++to 5.65849e-006
Heightened Def Con from 5.65849e-006 to 5.65962e-006
Heightened Def Con from 5.66243e-006 +to 5.66556e-006
Heightened Def Con from 5.66941e-006 ++to 5.67654e-006
Heightened Def Con from 5.67733e-006 to 5.67946e-006
Heightened Def Con from 5.68064e-006 +to 5.68277e-006
Heightened Def Con from 5.68392e-006 to 5.68504e-006
Heightened Def Con from 5.68834e-006 +to 5.69047e-006
Heightened Def Con from 5.69429e-006 +to 5.69931e-006
Heightened Def Con from 5.70476e-006 ++to 5.70889e-006
Heightened Def Con from 5.7093e-006 ++to 5.71742e-006
Heightened Def Con from 5.71916e-006 ++to 5.72229e-006
Heightened Def Con from 5.72241e-006 to 5.72454e-006
Heightened Def Con from 5.72867e-006 to 5.73767e-006
Heightened Def Con from 5.73819e-006 to 5.73921e-006
Heightened Def Con from 5.74207e-006 +to 5.74409e-006
Heightened Def Con from 5.74661e-006 +to 5.74963e-006
Heightened Def Con from 5.74966e-006 +to 5.75966e-006
Heightened Def Con from 5.76643e-006 +to 5.77455e-006
Heightened Def Con from 5.78612e-006 +++to 5.79124e-006
Heightened Def Con from 5.79732e-006 +++to 5.80145e-006
Heightened Def Con from 5.80151e-006 +++to 5.80563e-006
Heightened Def Con from 5.80686e-006 +to 5.81098e-006
Heightened Def Con from 5.81115e-006 to 5.81215e-006
Heightened Def Con from 5.82254e-006 ++to 5.82554e-006
Heightened Def Con from 5.82656e-006 +to 5.82857e-006
Heightened Def Con from 5.83027e-006 ++to 5.83439e-006
Heightened Def Con from 5.83498e-006 to 5.83699e-006
Heightened Def Con from 5.83708e-006 +to 5.83921e-006
Heightened Def Con from 5.83921e-006 +to 5.84133e-006
Heightened Def Con from 5.84139e-006 to 5.84251e-006
Heightened Def Con from 5.84259e-006 to 5.85059e-006
Heightened Def Con from 5.85088e-006 +to 5.858e-006
Heightened Def Con from 5.85996e-006 to 5.86996e-006
Heightened Def Con from 5.87286e-006 +to 5.87987e-006
Heightened Def Con from 5.8802e-006 +to 5.88533e-006
Heightened Def Con from 5.8859e-006 to 5.88903e-006
Heightened Def Con from 5.88931e-006 to 5.89444e-006
Heightened Def Con from 5.89444e-006 +to 5.89769e-006
Heightened Def Con from 5.8978e-006 to 5.8998e-006
Heightened Def Con from 5.90238e-006 to 5.90551e-006
Heightened Def Con from 5.9066e-006 +to 5.90862e-006
Heightened Def Con from 5.91292e-006 +++to 5.91692e-006
Heightened Def Con from 5.91692e-006 to 5.91892e-006
Heightened Def Con from 5.91893e-006 to 5.92005e-006
Heightened Def Con from 5.92005e-006 +to 5.93005e-006
Heightened Def Con from 5.93033e-006 to 5.93545e-006
Heightened Def Con from 5.9391e-006 ++to 5.94311e-006
Heightened Def Con from 5.94328e-006 ++to 5.94742e-006
Heightened Def Con from 5.95136e-006 ++to 5.95437e-006
Heightened Def Con from 5.95597e-006 +++to 5.96197e-006
Heightened Def Con from 5.96794e-006 +to 5.97007e-006
Heightened Def Con from 5.97057e-006 ++to 5.97357e-006
Heightened Def Con from 5.97414e-006 +++to 5.99015e-006
Heightened Def Con from 5.9902e-006 to 5.9992e-006
Heightened Def Con from 6.00007e-006 to 6.00207e-006
Heightened Def Con from 6.00349e-006 to 6.0055e-006
Heightened Def Con from 6.0055e-006 to 6.01163e-006
Heightened Def Con from 6.01243e-006 to 6.01556e-006
Heightened Def Con from 6.02012e-006 ++to 6.02624e-006
Heightened Def Con from 6.03044e-006 to 6.03144e-006
Heightened Def Con from 6.03325e-006 ++to 6.03627e-006
Heightened Def Con from 6.03629e-006 to 6.03841e-006
Heightened Def Con from 6.03905e-006 +to 6.04218e-006
Heightened Def Con from 6.04292e-006 +++to 6.05204e-006
Heightened Def Con from 6.05529e-006 ++to 6.05929e-006
Heightened Def Con from 6.05929e-006 ++to 6.06629e-006
Heightened Def Con from 6.0667e-006 to 6.0747e-006
Heightened Def Con from 6.0753e-006 to 6.08043e-006
Heightened Def Con from 6.08181e-006 to 6.08293e-006
Heightened Def Con from 6.08368e-006 to 6.0848e-006
Heightened Def Con from 6.0917e-006 ++to 6.09583e-006
Heightened Def Con from 6.0961e-006 to 6.09811e-006
Heightened Def Con from 6.09903e-006 +++to 6.11015e-006
Heightened Def Con from 6.11331e-006 ++to 6.11631e-006
Heightened Def Con from 6.11631e-006 +to 6.12131e-006
Heightened Def Con from 6.12137e-006 to 6.1235e-006
Heightened Def Con from 6.12391e-006 +to 6.12804e-006
Heightened Def Con from 6.12936e-006 to 6.13149e-006
Heightened Def Con from 6.13403e-006 ++to 6.13715e-006
Heightened Def Con from 6.13739e-006 to 6.1384e-006
Heightened Def Con from 6.13906e-006 +to 6.14119e-006
Heightened Def Con from 6.14218e-006 to 6.1483e-006
Heightened Def Con from 6.14972e-006 to 6.15184e-006
Heightened Def Con from 6.15202e-006 to 6.15614e-006
Heightened Def Con from 6.15865e-006 to 6.16078e-006
Heightened Def Con from 6.16094e-006 to 6.16208e-006
Heightened Def Con from 6.16498e-006 +to 6.16898e-006
Heightened Def Con from 6.16898e-006 to 6.1701e-006
Heightened Def Con from 6.1718e-006 ++++to 6.17893e-006
Heightened Def Con from 6.18431e-006 +++to 6.18831e-006
Heightened Def Con from 6.18831e-006 to 6.19032e-006
Heightened Def Con from 6.19037e-006 ++to 6.1955e-006
Heightened Def Con from 6.19556e-006 to 6.19969e-006
Heightened Def Con from 6.19975e-006 to 6.20277e-006
Heightened Def Con from 6.20489e-006 to 6.20702e-006
Heightened Def Con from 6.20968e-006 ++to 6.21368e-006
Heightened Def Con from 6.21368e-006 to 6.21681e-006
Heightened Def Con from 6.21741e-006 +to 6.22054e-006
Heightened Def Con from 6.22116e-006 to 6.22218e-006
Heightened Def Con from 6.22236e-006 ++to 6.23248e-006
Heightened Def Con from 6.23271e-006 to 6.23371e-006
Heightened Def Con from 6.23371e-006 to 6.23496e-006
Heightened Def Con from 6.2355e-006 to 6.2365e-006
Heightened Def Con from 6.2365e-006 to 6.2375e-006
Heightened Def Con from 6.2375e-006 +to 6.2395e-006
Heightened Def Con from 6.23955e-006 +to 6.24167e-006
Heightened Def Con from 6.24282e-006 +to 6.24782e-006
Heightened Def Con from 6.24975e-006 ++to 6.25488e-006
Heightened Def Con from 6.25722e-006 +to 6.26434e-006
Heightened Def Con from 6.26554e-006 +to 6.26767e-006
Heightened Def Con from 6.26905e-006 ++to 6.27407e-006
Heightened Def Con from 6.27529e-006 to 6.27629e-006
Heightened Def Con from 6.27629e-006 to 6.27829e-006
Heightened Def Con from 6.28003e-006 +to 6.28305e-006
Heightened Def Con from 6.28393e-006 to 6.28705e-006
Heightened Def Con from 6.2871e-006 +to 6.29223e-006
Heightened Def Con from 6.29335e-006 to 6.29447e-006
Heightened Def Con from 6.29581e-006 to 6.30282e-006
Heightened Def Con from 6.3104e-006 +++to 6.31852e-006
Heightened Def Con from 6.31888e-006 to 6.3209e-006
Heightened Def Con from 6.32101e-006 to 6.32203e-006
Heightened Def Con from 6.32317e-006 +++to 6.33029e-006
Heightened Def Con from 6.3303e-006 to 6.33331e-006
Heightened Def Con from 6.33623e-006 +++to 6.34036e-006
Heightened Def Con from 6.34466e-006 ++++to 6.35278e-006
Heightened Def Con from 6.3539e-006 +to 6.3569e-006
Heightened Def Con from 6.35727e-006 +to 6.36639e-006
Heightened Def Con from 6.36643e-006 to 6.37345e-006
Heightened Def Con from 6.37436e-006 to 6.37649e-006
Heightened Def Con from 6.37834e-006 to 6.37947e-006
Heightened Def Con from 6.37959e-006 to 6.38171e-006
Heightened Def Con from 6.38175e-006 to 6.38288e-006
Heightened Def Con from 6.38372e-006 to 6.38674e-006
Heightened Def Con from 6.39179e-006 +to 6.3938e-006
Heightened Def Con from 6.39836e-006 +to 6.40137e-006
Heightened Def Con from 6.40283e-006 ++to 6.40796e-006
Heightened Def Con from 6.40942e-006 to 6.41044e-006
Heightened Def Con from 6.41106e-006 ++to 6.41519e-006
Heightened Def Con from 6.42451e-006 ++to 6.43164e-006
Heightened Def Con from 6.43241e-006 to 6.43454e-006
Heightened Def Con from 6.43579e-006 +to 6.44279e-006
Heightened Def Con from 6.44279e-006 to 6.44481e-006
Heightened Def Con from 6.44494e-006 ++to 6.46094e-006
Heightened Def Con from 6.46205e-006 to 6.46617e-006
Heightened Def Con from 6.46651e-006 to 6.46963e-006
Heightened Def Con from 6.46982e-006 to 6.47583e-006
Heightened Def Con from 6.47868e-006 +to 6.48081e-006
Heightened Def Con from 6.48143e-006 to 6.48243e-006
Heightened Def Con from 6.48496e-006 to 6.48997e-006
Heightened Def Con from 6.49105e-006 +to 6.49918e-006
Heightened Def Con from 6.50213e-006 to 6.50714e-006
Heightened Def Con from 6.51349e-006 ++to 6.51762e-006
Heightened Def Con from 6.51843e-006 to 6.51944e-006
Heightened Def Con from 6.51977e-006 +to 6.52389e-006
Heightened Def Con from 6.5275e-006 ++++to 6.54163e-006
Heightened Def Con from 6.54306e-006 +to 6.54619e-006
Heightened Def Con from 6.54758e-006 to 6.5487e-006
Heightened Def Con from 6.55163e-006 to 6.55463e-006
Heightened Def Con from 6.55732e-006 +to 6.56232e-006
Heightened Def Con from 6.56682e-006 +to 6.57095e-006
Heightened Def Con from 6.57837e-006 to 6.58337e-006
Heightened Def Con from 6.58929e-006 +to 6.59342e-006
Heightened Def Con from 6.594e-006 +to 6.59612e-006
Heightened Def Con from 6.6036e-006 +++to 6.60773e-006
Heightened Def Con from 6.61112e-006 ++to 6.61814e-006
Heightened Def Con from 6.62102e-006 to 6.62315e-006
Heightened Def Con from 6.62943e-006 +to 6.63556e-006
Heightened Def Con from 6.63562e-006 to 6.63775e-006
Heightened Def Con from 6.64047e-006 +to 6.65147e-006
Heightened Def Con from 6.65426e-006 to 6.65738e-006
Heightened Def Con from 6.65788e-006 +to 6.66e-006
Heightened Def Con from 6.66079e-006 to 6.66192e-006
Heightened Def Con from 6.66211e-006 +to 6.66424e-006
Heightened Def Con from 6.66424e-006 +to 6.66936e-006
Heightened Def Con from 6.67222e-006 +to 6.67935e-006
Heightened Def Con from 6.68056e-006 +to 6.68557e-006
Heightened Def Con from 6.68679e-006 +to 6.68879e-006
Heightened Def Con from 6.68879e-006 to 6.69091e-006
Heightened Def Con from 6.69267e-006 to 6.69367e-006
Heightened Def Con from 6.69568e-006 +to 6.6988e-006
Heightened Def Con from 6.7005e-006 +to 6.7035e-006
Heightened Def Con from 6.70546e-006 +to 6.70747e-006
Heightened Def Con from 6.70749e-006 to 6.70849e-006
Heightened Def Con from 6.70849e-006 to 6.71049e-006
Heightened Def Con from 6.71255e-006 +++to 6.71867e-006
Heightened Def Con from 6.72229e-006 to 6.72429e-006
Heightened Def Con from 6.72475e-006 +to 6.72775e-006
Heightened Def Con from 6.72775e-006 to 6.72888e-006
Heightened Def Con from 6.73179e-006 +to 6.73591e-006
Heightened Def Con from 6.7377e-006 +to 6.73972e-006
Heightened Def Con from 6.74689e-006 +++to 6.75902e-006
Heightened Def Con from 6.76079e-006 +to 6.76391e-006
Heightened Def Con from 6.76397e-006 to 6.76497e-006
Heightened Def Con from 6.76541e-006 ++to 6.77254e-006
Heightened Def Con from 6.77795e-006 +++to 6.78508e-006
Heightened Def Con from 6.78881e-006 ++to 6.79693e-006
Heightened Def Con from 6.79751e-006 to 6.80551e-006
Heightened Def Con from 6.80551e-006 to 6.80864e-006
Heightened Def Con from 6.81272e-006 ++to 6.81674e-006
Heightened Def Con from 6.81761e-006 to 6.82063e-006
Heightened Def Con from 6.82157e-006 to 6.82358e-006
Heightened Def Con from 6.82453e-006 +++to 6.83266e-006
Heightened Def Con from 6.83302e-006 to 6.84002e-006
Heightened Def Con from 6.84244e-006 ++to 6.84558e-006
Heightened Def Con from 6.84574e-006 to 6.84787e-006
Heightened Def Con from 6.85078e-006 +to 6.8529e-006
Heightened Def Con from 6.8529e-006 to 6.85392e-006
Heightened Def Con from 6.85542e-006 ++to 6.85954e-006
Heightened Def Con from 6.86479e-006 ++to 6.87192e-006
Heightened Def Con from 6.87201e-006 +to 6.87401e-006
Heightened Def Con from 6.87718e-006 +to 6.8802e-006
Heightened Def Con from 6.88338e-006 +to 6.88551e-006
Heightened Def Con from 6.88573e-006 +++to 6.89585e-006
Heightened Def Con from 6.89841e-006 to 6.90254e-006
Heightened Def Con from 6.90404e-006 ++to 6.90704e-006
Heightened Def Con from 6.90704e-006 to 6.90917e-006
Heightened Def Con from 6.91242e-006 +to 6.91467e-006
Heightened Def Con from 6.91688e-006 +++to 6.921e-006
Heightened Def Con from 6.92112e-006 to 6.92324e-006
Heightened Def Con from 6.9263e-006 ++to 6.92931e-006
Heightened Def Con from 6.92967e-006 +++to 6.93579e-006
Heightened Def Con from 6.93823e-006 ++to 6.94636e-006
Heightened Def Con from 6.94636e-006 to 6.94749e-006
Heightened Def Con from 6.94837e-006 +to 6.95049e-006
Heightened Def Con from 6.95713e-006 +to 6.96013e-006
Heightened Def Con from 6.96125e-006 to 6.97025e-006
Heightened Def Con from 6.97163e-006 to 6.97363e-006
Heightened Def Con from 6.97363e-006 to 6.97575e-006
Heightened Def Con from 6.97957e-006 +to 6.98159e-006
Heightened Def Con from 6.98278e-006 +to 6.98591e-006
Heightened Def Con from 6.98598e-006 +to 6.988e-006
Heightened Def Con from 6.988e-006 +to 7.001e-006
Heightened Def Con from 7.00127e-006 to 7.01027e-006
Heightened Def Con from 7.01046e-006 to 7.01846e-006
Heightened Def Con from 7.01873e-006 to 7.02086e-006
Heightened Def Con from 7.02135e-006 to 7.02248e-006
Heightened Def Con from 7.02281e-006 to 7.02681e-006
Heightened Def Con from 7.02681e-006 +to 7.02806e-006
Heightened Def Con from 7.02815e-006 to 7.03228e-006
Heightened Def Con from 7.03722e-006 ++to 7.04334e-006
Heightened Def Con from 7.04338e-006 to 7.04551e-006
Heightened Def Con from 7.04815e-006 +++++to 7.06127e-006
Heightened Def Con from 7.06319e-006 +to 7.06621e-006
Heightened Def Con from 7.06765e-006 to 7.06865e-006
Heightened Def Con from 7.06865e-006 +to 7.07178e-006
Heightened Def Con from 7.07227e-006 +to 7.07639e-006
Heightened Def Con from 7.0776e-006 to 7.08573e-006
Heightened Def Con from 7.08766e-006 to 7.08978e-006
Heightened Def Con from 7.09171e-006 to 7.09271e-006
Heightened Def Con from 7.09794e-006 +to 7.10196e-006
Heightened Def Con from 7.10308e-006 to 7.1041e-006
Heightened Def Con from 7.10923e-006 +to 7.11336e-006
Heightened Def Con from 7.11363e-006 ++to 7.11676e-006
Heightened Def Con from 7.11928e-006 ++to 7.12229e-006
Heightened Def Con from 7.12229e-006 +to 7.13729e-006
Heightened Def Con from 7.13797e-006 to 7.14109e-006
Heightened Def Con from 7.14241e-006 to 7.14342e-006
Heightened Def Con from 7.14687e-006 to 7.15188e-006
Heightened Def Con from 7.15701e-006 ++to 7.16314e-006
Heightened Def Con from 7.16318e-006 to 7.16431e-006
Heightened Def Con from 7.16895e-006 +to 7.17507e-006
Heightened Def Con from 7.17507e-006 to 7.1792e-006
Heightened Def Con from 7.17972e-006 to 7.18585e-006
Heightened Def Con from 7.18749e-006 +++to 7.19362e-006
Heightened Def Con from 7.19464e-006 +++to 7.20764e-006
Heightened Def Con from 7.21211e-006 +to 7.21623e-006
Heightened Def Con from 7.21733e-006 +++to 7.22258e-006
Heightened Def Con from 7.22378e-006 to 7.22591e-006
Heightened Def Con from 7.22756e-006 +++to 7.23258e-006
Heightened Def Con from 7.23261e-006 to 7.23373e-006
Heightened Def Con from 7.23427e-006 +to 7.23627e-006
Heightened Def Con from 7.2411e-006 +to 7.24324e-006
Heightened Def Con from 7.24324e-006 +to 7.24526e-006
Heightened Def Con from 7.25026e-006 ++to 7.25339e-006
Heightened Def Con from 7.25515e-006 +++to 7.27515e-006
Heightened Def Con from 7.27516e-006 to 7.27728e-006
Heightened Def Con from 7.28209e-006 ++to 7.28822e-006
Heightened Def Con from 7.28854e-006 to 7.29267e-006
Heightened Def Con from 7.29703e-006 to 7.29815e-006
Heightened Def Con from 7.3002e-006 ++to 7.30932e-006
Heightened Def Con from 7.31308e-006 +++to 7.31721e-006
Heightened Def Con from 7.31721e-006 to 7.31833e-006
Heightened Def Con from 7.31833e-006 to 7.32146e-006
Heightened Def Con from 7.3216e-006 to 7.32285e-006
Heightened Def Con from 7.32394e-006 +to 7.32806e-006
Heightened Def Con from 7.32938e-006 +to 7.33138e-006
Heightened Def Con from 7.33247e-006 ++to 7.3396e-006
Heightened Def Con from 7.33983e-006 ++to 7.34296e-006
Heightened Def Con from 7.34863e-006 ++to 7.35263e-006
Heightened Def Con from 7.35263e-006 to 7.35576e-006
Heightened Def Con from 7.35681e-006 ++to 7.36281e-006
Heightened Def Con from 7.36281e-006 +to 7.36793e-006
Heightened Def Con from 7.36835e-006 to 7.37049e-006
Heightened Def Con from 7.37177e-006 to 7.3749e-006
Heightened Def Con from 7.38075e-006 +to 7.38377e-006
Heightened Def Con from 7.38485e-006 +to 7.38998e-006
Heightened Def Con from 7.39063e-006 to 7.39176e-006
Heightened Def Con from 7.39176e-006 to 7.39288e-006
Heightened Def Con from 7.39511e-006 +to 7.40123e-006
Heightened Def Con from 7.40549e-006 to 7.41051e-006
Heightened Def Con from 7.41206e-006 ++to 7.41519e-006
Heightened Def Con from 7.41525e-006 to 7.42625e-006
Heightened Def Con from 7.42922e-006 ++to 7.43422e-006
Heightened Def Con from 7.43553e-006 to 7.43666e-006
Heightened Def Con from 7.43666e-006 ++to 7.44491e-006
Heightened Def Con from 7.44491e-006 to 7.44592e-006
Heightened Def Con from 7.44624e-006 to 7.44937e-006
Heightened Def Con from 7.45002e-006 to 7.45102e-006
Heightened Def Con from 7.45102e-006 to 7.45302e-006
Heightened Def Con from 7.45302e-006 to 7.45415e-006
Heightened Def Con from 7.45621e-006 to 7.45734e-006
Heightened Def Con from 7.46667e-006 +++to 7.47079e-006
Heightened Def Con from 7.47379e-006 ++to 7.47791e-006
Heightened Def Con from 7.47807e-006 ++to 7.4862e-006
Heightened Def Con from 7.48676e-006 to 7.48776e-006
Heightened Def Con from 7.48776e-006 to 7.49676e-006
Heightened Def Con from 7.49855e-006 to 7.50056e-006
Heightened Def Con from 7.50065e-006 to 7.50378e-006
Heightened Def Con from 7.50398e-006 to 7.505e-006
Heightened Def Con from 7.50503e-006 to 7.50604e-006
Heightened Def Con from 7.50608e-006 to 7.50909e-006
Heightened Def Con from 7.51106e-006 ++to 7.51619e-006
Heightened Def Con from 7.51701e-006 to 7.51813e-006
Heightened Def Con from 7.52808e-006 +++to 7.53721e-006
Heightened Def Con from 7.53782e-006 to 7.53883e-006
Heightened Def Con from 7.53883e-006 to 7.54283e-006
Heightened Def Con from 7.54291e-006 to 7.54416e-006
Heightened Def Con from 7.54761e-006 +to 7.55073e-006
Heightened Def Con from 7.55129e-006 +to 7.55429e-006
Heightened Def Con from 7.55585e-006 +to 7.55887e-006
Heightened Def Con from 7.56014e-006 +++to 7.56416e-006
Heightened Def Con from 7.56438e-006 ++to 7.56751e-006
Heightened Def Con from 7.56751e-006 to 7.57751e-006
Heightened Def Con from 7.58024e-006 to 7.58149e-006
Heightened Def Con from 7.58571e-006 +to 7.59072e-006
Heightened Def Con from 7.59081e-006 to 7.59381e-006
Heightened Def Con from 7.59383e-006 to 7.60083e-006
Heightened Def Con from 7.60167e-006 to 7.6028e-006
Heightened Def Con from 7.61474e-006 +to 7.61686e-006
Heightened Def Con from 7.61964e-006 ++to 7.62389e-006
Heightened Def Con from 7.62549e-006 +to 7.62761e-006
Heightened Def Con from 7.62923e-006 ++to 7.63335e-006
Heightened Def Con from 7.63389e-006 to 7.63801e-006
Heightened Def Con from 7.64365e-006 +++to 7.64777e-006
Heightened Def Con from 7.6496e-006 ++++to 7.66361e-006
Heightened Def Con from 7.66528e-006 to 7.66741e-006
Heightened Def Con from 7.66783e-006 +++to 7.67396e-006
Heightened Def Con from 7.67606e-006 +to 7.67919e-006
Heightened Def Con from 7.67919e-006 +to 7.69219e-006
Heightened Def Con from 7.69407e-006 to 7.69509e-006
Heightened Def Con from 7.69571e-006 to 7.70384e-006
Heightened Def Con from 7.70388e-006 to 7.70888e-006
Heightened Def Con from 7.71056e-006 +to 7.71568e-006
Heightened Def Con from 7.7158e-006 to 7.7178e-006
Heightened Def Con from 7.71822e-006 +to 7.72023e-006
Heightened Def Con from 7.7204e-006 +to 7.7244e-006
Heightened Def Con from 7.7244e-006 to 7.72553e-006
Heightened Def Con from 7.72646e-006 +to 7.72946e-006
Heightened Def Con from 7.72946e-006 +to 7.73946e-006
Heightened Def Con from 7.73946e-006 to 7.74647e-006
Heightened Def Con from 7.74647e-006 ++to 7.75749e-006
Heightened Def Con from 7.75962e-006 +to 7.76187e-006
Heightened Def Con from 7.76427e-006 +to 7.7664e-006
Heightened Def Con from 7.76648e-006 ++to 7.7696e-006
Heightened Def Con from 7.77148e-006 +to 7.7746e-006
Heightened Def Con from 7.7746e-006 +to 7.77662e-006
Heightened Def Con from 7.77924e-006 +++to 7.78624e-006
Heightened Def Con from 7.78893e-006 +to 7.79395e-006
Heightened Def Con from 7.79458e-006 ++to 7.79958e-006
Heightened Def Con from 7.80014e-006 to 7.80326e-006
Heightened Def Con from 7.80539e-006 +to 7.80841e-006
Heightened Def Con from 7.80912e-006 to 7.81012e-006
Heightened Def Con from 7.81022e-006 +to 7.81335e-006
Heightened Def Con from 7.81728e-006 ++to 7.8203e-006
Heightened Def Con from 7.82279e-006 +to 7.82579e-006
Heightened Def Con from 7.82579e-006 +++to 7.83591e-006
Heightened Def Con from 7.83591e-006 to 7.83804e-006
Heightened Def Con from 7.84014e-006 +++to 7.84714e-006
Heightened Def Con from 7.84927e-006 +++to 7.8534e-006
Heightened Def Con from 7.85352e-006 to 7.85565e-006
Heightened Def Con from 7.8561e-006 to 7.85723e-006
Heightened Def Con from 7.85893e-006 +++to 7.87106e-006
Heightened Def Con from 7.87481e-006 ++++to 7.88206e-006
Heightened Def Con from 7.8851e-006 to 7.88612e-006
Heightened Def Con from 7.88664e-006 ++to 7.89064e-006
Heightened Def Con from 7.89065e-006 to 7.89265e-006
Heightened Def Con from 7.89365e-006 to 7.89666e-006
Heightened Def Con from 7.89825e-006 ++++to 7.90426e-006
Heightened Def Con from 7.90752e-006 to 7.90852e-006
Heightened Def Con from 7.90978e-006 ++to 7.91478e-006
Heightened Def Con from 7.91478e-006 to 7.91578e-006
Heightened Def Con from 7.91591e-006 to 7.91791e-006
Heightened Def Con from 7.9235e-006 +to 7.93262e-006
Heightened Def Con from 7.9354e-006 ++to 7.93853e-006
Heightened Def Con from 7.93857e-006 ++to 7.9427e-006
Heightened Def Con from 7.94275e-006 +to 7.94488e-006
Heightened Def Con from 7.94488e-006 to 7.94688e-006
Heightened Def Con from 7.94688e-006 to 7.95e-006
Heightened Def Con from 7.95006e-006 to 7.95106e-006
Heightened Def Con from 7.95219e-006 to 7.95332e-006
Heightened Def Con from 7.95345e-006 to 7.95557e-006
Heightened Def Con from 7.95566e-006 to 7.96266e-006
Heightened Def Con from 7.96266e-006 to 7.96766e-006
Heightened Def Con from 7.97115e-006 +++to 7.97615e-006
Heightened Def Con from 7.97615e-006 +to 7.97927e-006
Heightened Def Con from 7.97935e-006 to 7.98835e-006
Heightened Def Con from 7.98845e-006 to 7.99058e-006
Heightened Def Con from 7.99277e-006 to 7.99479e-006
Heightened Def Con from 7.99481e-006 +to 7.99881e-006
Heightened Def Con from 7.99881e-006 to 7.99994e-006
Heightened Def Con from 8.00092e-006 to 8.00304e-006
Heightened Def Con from 8.0034e-006 to 8.00641e-006
Heightened Def Con from 8.00764e-006 to 8.00865e-006
Heightened Def Con from 8.0104e-006 +to 8.01841e-006
Heightened Def Con from 8.01852e-006 to 8.02264e-006
Heightened Def Con from 8.02461e-006 +to 8.02674e-006
Heightened Def Con from 8.03029e-006 to 8.03131e-006
Heightened Def Con from 8.03451e-006 ++to 8.03751e-006
Heightened Def Con from 8.03807e-006 to 8.03907e-006
Heightened Def Con from 8.04147e-006 ++to 8.04659e-006
Heightened Def Con from 8.04876e-006 ++to 8.05289e-006
Heightened Def Con from 8.05289e-006 to 8.05601e-006
Heightened Def Con from 8.05999e-006 ++to 8.06312e-006
Heightened Def Con from 8.06318e-006 to 8.0643e-006
Heightened Def Con from 8.06541e-006 to 8.07043e-006
Heightened Def Con from 8.07045e-006 to 8.07545e-006
Heightened Def Con from 8.07733e-006 +++to 8.09346e-006
Heightened Def Con from 8.09557e-006 to 8.09657e-006
Heightened Def Con from 8.10371e-006 ++++to 8.11683e-006
Heightened Def Con from 8.1178e-006 to 8.1298e-006
Heightened Def Con from 8.1327e-006 to 8.13371e-006
Heightened Def Con from 8.13741e-006 to 8.13841e-006
Heightened Def Con from 8.13955e-006 to 8.14067e-006
Heightened Def Con from 8.14079e-006 to 8.14292e-006
Heightened Def Con from 8.14423e-006 ++to 8.14935e-006
[...]
Heightened Def Con from 9.79281e-005 +to 9.79301e-005
Heightened Def Con from 9.79301e-005 +to 9.79322e-005
Heightened Def Con from 9.79411e-005 +to 9.79432e-005
Heightened Def Con from 9.79438e-005 ++to 9.79468e-005
Heightened Def Con from 9.79469e-005 to 9.7949e-005
Heightened Def Con from 9.79499e-005 +to 9.79549e-005
Heightened Def Con from 9.79549e-005 to 9.79569e-005
Heightened Def Con from 9.79594e-005 to 9.79605e-005
Heightened Def Con from 9.79642e-005 +to 9.79723e-005
Heightened Def Con from 9.79747e-005 +to 9.79778e-005
Heightened Def Con from 9.79801e-005 +to 9.79833e-005
Heightened Def Con from 9.79862e-005 +to 9.79894e-005
Heightened Def Con from 9.79936e-005 ++to 9.79997e-005
Heightened Def Con from 9.80016e-005 +to 9.80046e-005
Heightened Def Con from 9.80059e-005 +to 9.80089e-005
Heightened Def Con from 9.80089e-005 to 9.80179e-005
Heightened Def Con from 9.8019e-005 to 9.802e-005
Heightened Def Con from 9.80231e-005 +to 9.80263e-005
Heightened Def Con from 9.80266e-005 +to 9.80286e-005
Heightened Def Con from 9.80286e-005 +to 9.80337e-005
Heightened Def Con from 9.80358e-005 to 9.80398e-005
Heightened Def Con from 9.80409e-005 to 9.8042e-005
Heightened Def Con from 9.80443e-005 ++to 9.80494e-005
Heightened Def Con from 9.80504e-005 +to 9.80534e-005
Heightened Def Con from 9.80555e-005 to 9.80566e-005
Heightened Def Con from 9.80577e-005 to 9.80608e-005
Heightened Def Con from 9.80609e-005 to 9.80619e-005
Heightened Def Con from 9.80648e-005 +to 9.80689e-005
Heightened Def Con from 9.80733e-005 +to 9.80755e-005
Heightened Def Con from 9.80791e-005 ++to 9.80862e-005
Heightened Def Con from 9.80875e-005 to 9.80886e-005
Heightened Def Con from 9.80904e-005 to 9.80914e-005
Heightened Def Con from 9.80914e-005 to 9.80934e-005
Heightened Def Con from 9.80934e-005 to 9.80945e-005
Heightened Def Con from 9.80952e-005 ++to 9.81073e-005
Heightened Def Con from 9.81085e-005 to 9.81106e-005
Heightened Def Con from 9.81187e-005 +to 9.81229e-005
Heightened Def Con from 9.8126e-005 ++to 9.8129e-005
Heightened Def Con from 9.8129e-005 to 9.813e-005
Heightened Def Con from 9.813e-005 to 9.81321e-005
Heightened Def Con from 9.81325e-005 to 9.81356e-005
Heightened Def Con from 9.81381e-005 ++to 9.81412e-005
Heightened Def Con from 9.81413e-005 to 9.81443e-005
Heightened Def Con from 9.81443e-005 to 9.81453e-005
Heightened Def Con from 9.81458e-005 +to 9.81479e-005
Heightened Def Con from 9.81479e-005 to 9.81511e-005
Heightened Def Con from 9.81513e-005 +to 9.81575e-005
Heightened Def Con from 9.81608e-005 to 9.81618e-005
Heightened Def Con from 9.81701e-005 +++to 9.81761e-005
Heightened Def Con from 9.81774e-005 +to 9.81824e-005
Heightened Def Con from 9.81856e-005 +to 9.81877e-005
Heightened Def Con from 9.819e-005 ++to 9.81962e-005
Heightened Def Con from 9.81973e-005 ++to 9.82024e-005
Heightened Def Con from 9.82193e-005 ++to 9.82224e-005
Heightened Def Con from 9.82225e-005 to 9.82235e-005
Heightened Def Con from 9.82253e-005 +++to 9.82293e-005
Heightened Def Con from 9.82293e-005 to 9.82335e-005
Heightened Def Con from 9.82341e-005 to 9.82411e-005
Heightened Def Con from 9.82446e-005 +to 9.82517e-005
Heightened Def Con from 9.82552e-005 +to 9.82573e-005
Heightened Def Con from 9.82588e-005 +to 9.8261e-005
Heightened Def Con from 9.82639e-005 +to 9.827e-005
Heightened Def Con from 9.82701e-005 to 9.82722e-005
Heightened Def Con from 9.82798e-005 +++++to 9.82989e-005
Heightened Def Con from 9.82989e-005 to 9.8302e-005
Heightened Def Con from 9.83048e-005 ++to 9.83158e-005
Heightened Def Con from 9.83185e-005 to 9.83216e-005
Heightened Def Con from 9.83216e-005 to 9.83267e-005
Heightened Def Con from 9.833e-005 to 9.83321e-005
Heightened Def Con from 9.83322e-005 to 9.83334e-005
Heightened Def Con from 9.83353e-005 to 9.83365e-005
Heightened Def Con from 9.83373e-005 ++to 9.83404e-005
Heightened Def Con from 9.83414e-005 to 9.83425e-005
Heightened Def Con from 9.83443e-005 ++to 9.83505e-005
Heightened Def Con from 9.83506e-005 to 9.83578e-005
Heightened Def Con from 9.83594e-005 to 9.83604e-005
Heightened Def Con from 9.83604e-005 to 9.83656e-005
Heightened Def Con from 9.837e-005 +to 9.83761e-005
Heightened Def Con from 9.83762e-005 to 9.83852e-005
Heightened Def Con from 9.83862e-005 +to 9.83902e-005
Heightened Def Con from 9.83905e-005 to 9.83917e-005
Heightened Def Con from 9.83921e-005 to 9.83951e-005
Heightened Def Con from 9.83973e-005 ++to 9.84023e-005
Heightened Def Con from 9.84036e-005 to 9.84046e-005
Heightened Def Con from 9.84072e-005 +to 9.84093e-005
Heightened Def Con from 9.84109e-005 to 9.84139e-005
Heightened Def Con from 9.84159e-005 ++to 9.8423e-005
Heightened Def Con from 9.84231e-005 to 9.84262e-005
Heightened Def Con from 9.84312e-005 to 9.84322e-005
Heightened Def Con from 9.84354e-005 to 9.84364e-005
Heightened Def Con from 9.84365e-005 +++to 9.84416e-005
Heightened Def Con from 9.84427e-005 to 9.84439e-005
Heightened Def Con from 9.8444e-005 +to 9.8446e-005
Heightened Def Con from 9.84508e-005 ++to 9.8454e-005
Heightened Def Con from 9.84555e-005 to 9.84566e-005
Heightened Def Con from 9.84567e-005 to 9.84589e-005
Heightened Def Con from 9.84589e-005 +to 9.84609e-005
Heightened Def Con from 9.84683e-005 ++to 9.84725e-005
Heightened Def Con from 9.84728e-005 ++to 9.84788e-005
Heightened Def Con from 9.84788e-005 +to 9.8492e-005
Heightened Def Con from 9.84988e-005 +to 9.85028e-005
Heightened Def Con from 9.8507e-005 +to 9.85091e-005
Heightened Def Con from 9.85118e-005 +to 9.85138e-005
Heightened Def Con from 9.85173e-005 ++to 9.85213e-005
Heightened Def Con from 9.85213e-005 to 9.85225e-005
Heightened Def Con from 9.85225e-005 to 9.85236e-005
Heightened Def Con from 9.85291e-005 to 9.85331e-005
Heightened Def Con from 9.85332e-005 to 9.85382e-005
Heightened Def Con from 9.85438e-005 ++to 9.85478e-005
Heightened Def Con from 9.85479e-005 to 9.85499e-005
Heightened Def Con from 9.85506e-005 to 9.85516e-005
Heightened Def Con from 9.85529e-005 +to 9.8555e-005
Heightened Def Con from 9.85562e-005 +to 9.85603e-005
Heightened Def Con from 9.85636e-005 ++to 9.85677e-005
Heightened Def Con from 9.85688e-005 +to 9.85719e-005
Heightened Def Con from 9.8574e-005 +++to 9.858e-005
Heightened Def Con from 9.858e-005 to 9.85811e-005
Heightened Def Con from 9.85817e-005 ++to 9.85937e-005
Heightened Def Con from 9.85944e-005 to 9.85974e-005
Heightened Def Con from 9.85976e-005 to 9.85987e-005
Heightened Def Con from 9.85999e-005 to 9.8601e-005
Heightened Def Con from 9.86045e-005 to 9.86067e-005
Heightened Def Con from 9.86077e-005 to 9.86167e-005
Heightened Def Con from 9.86178e-005 to 9.86209e-005
Heightened Def Con from 9.86236e-005 ++to 9.86266e-005
Heightened Def Con from 9.86278e-005 to 9.86288e-005
Heightened Def Con from 9.86288e-005 to 9.86299e-005
Heightened Def Con from 9.8632e-005 +to 9.8637e-005
Heightened Def Con from 9.8637e-005 +to 9.86401e-005
Heightened Def Con from 9.86408e-005 ++to 9.86509e-005
Heightened Def Con from 9.86511e-005 to 9.86532e-005
Heightened Def Con from 9.86552e-005 to 9.86593e-005
Heightened Def Con from 9.86666e-005 +to 9.86737e-005
Heightened Def Con from 9.86749e-005 to 9.86771e-005
Heightened Def Con from 9.86791e-005 to 9.86812e-005
Heightened Def Con from 9.86821e-005 to 9.86841e-005
Heightened Def Con from 9.86863e-005 +to 9.86883e-005
Heightened Def Con from 9.86887e-005 to 9.86898e-005
Heightened Def Con from 9.86906e-005 ++to 9.86936e-005
Heightened Def Con from 9.86936e-005 to 9.86956e-005
Heightened Def Con from 9.86956e-005 to 9.86967e-005
Heightened Def Con from 9.86977e-005 to 9.86989e-005
Heightened Def Con from 9.86991e-005 to 9.87001e-005
Heightened Def Con from 9.87003e-005 to 9.87013e-005
Heightened Def Con from 9.87052e-005 ++to 9.87112e-005
Heightened Def Con from 9.87133e-005 +to 9.87204e-005
Heightened Def Con from 9.87206e-005 to 9.87226e-005
Heightened Def Con from 9.87226e-005 to 9.87276e-005
Heightened Def Con from 9.87293e-005 +to 9.87343e-005
Heightened Def Con from 9.87343e-005 to 9.87374e-005
Heightened Def Con from 9.87375e-005 to 9.87435e-005
Heightened Def Con from 9.87443e-005 to 9.87483e-005
Heightened Def Con from 9.87493e-005 +++to 9.87574e-005
Heightened Def Con from 9.87583e-005 +to 9.87613e-005
Heightened Def Con from 9.87614e-005 +to 9.87635e-005
Heightened Def Con from 9.87653e-005 ++to 9.87743e-005
Heightened Def Con from 9.87743e-005 to 9.87753e-005
Heightened Def Con from 9.8776e-005 to 9.8782e-005
Heightened Def Con from 9.87821e-005 to 9.87832e-005
Heightened Def Con from 9.87864e-005 to 9.87896e-005
Heightened Def Con from 9.87898e-005 +++to 9.87968e-005
Heightened Def Con from 9.87973e-005 to 9.87993e-005
Heightened Def Con from 9.88047e-005 to 9.88058e-005
Heightened Def Con from 9.88095e-005 +to 9.88115e-005
Heightened Def Con from 9.88115e-005 to 9.88125e-005
Heightened Def Con from 9.88131e-005 to 9.88161e-005
Heightened Def Con from 9.88182e-005 to 9.88192e-005
Heightened Def Con from 9.88192e-005 to 9.88202e-005
Heightened Def Con from 9.88202e-005 to 9.88214e-005
Heightened Def Con from 9.88219e-005 ++to 9.88249e-005
Heightened Def Con from 9.88249e-005 to 9.8827e-005
Heightened Def Con from 9.88288e-005 ++to 9.88339e-005
Heightened Def Con from 9.88383e-005 ++to 9.88413e-005
Heightened Def Con from 9.88459e-005 ++to 9.8849e-005
Heightened Def Con from 9.88505e-005 to 9.88546e-005
Heightened Def Con from 9.88561e-005 +to 9.88581e-005
Heightened Def Con from 9.88596e-005 ++to 9.88637e-005
Heightened Def Con from 9.88638e-005 to 9.88659e-005
Heightened Def Con from 9.88668e-005 to 9.88679e-005
Heightened Def Con from 9.88735e-005 ++to 9.88786e-005
Heightened Def Con from 9.88805e-005 +to 9.88826e-005
Heightened Def Con from 9.88827e-005 +to 9.88888e-005
Heightened Def Con from 9.88897e-005 to 9.88918e-005
Heightened Def Con from 9.88941e-005 +to 9.88992e-005
Heightened Def Con from 9.88992e-005 to 9.89012e-005
Heightened Def Con from 9.89016e-005 +to 9.89047e-005
Heightened Def Con from 9.89063e-005 +to 9.89103e-005
Heightened Def Con from 9.89135e-005 to 9.89156e-005
Heightened Def Con from 9.892e-005 ++to 9.8923e-005
Heightened Def Con from 9.89237e-005 to 9.89258e-005
Heightened Def Con from 9.89269e-005 to 9.89281e-005
Heightened Def Con from 9.89316e-005 to 9.89338e-005
Heightened Def Con from 9.89338e-005 to 9.89398e-005
Heightened Def Con from 9.89409e-005 to 9.89479e-005
Heightened Def Con from 9.8948e-005 +to 9.89522e-005
Heightened Def Con from 9.89536e-005 +to 9.89557e-005
Heightened Def Con from 9.89613e-005 to 9.89624e-005
Heightened Def Con from 9.89691e-005 ++to 9.89721e-005
Heightened Def Con from 9.89728e-005 to 9.89738e-005
Heightened Def Con from 9.89742e-005 to 9.89754e-005
Heightened Def Con from 9.89755e-005 +to 9.89865e-005
Heightened Def Con from 9.89876e-005 to 9.89887e-005
Heightened Def Con from 9.8989e-005 to 9.89911e-005
Heightened Def Con from 9.89919e-005 to 9.89931e-005
Heightened Def Con from 9.8995e-005 +++to 9.9005e-005
Heightened Def Con from 9.90091e-005 +to 9.90112e-005
Heightened Def Con from 9.90122e-005 +++to 9.90194e-005
Heightened Def Con from 9.902e-005 to 9.90221e-005
Heightened Def Con from 9.90227e-005 to 9.90247e-005
Heightened Def Con from 9.90288e-005 +to 9.90328e-005
Heightened Def Con from 9.90434e-005 ++to 9.90495e-005
Heightened Def Con from 9.90512e-005 +to 9.90543e-005
Heightened Def Con from 9.90582e-005 ++to 9.90634e-005
Heightened Def Con from 9.907e-005 +to 9.90742e-005
Heightened Def Con from 9.90742e-005 +++to 9.90843e-005
Heightened Def Con from 9.90844e-005 to 9.90924e-005
Heightened Def Con from 9.90934e-005 to 9.90944e-005
Heightened Def Con from 9.90944e-005 to 9.91005e-005
Heightened Def Con from 9.9101e-005 to 9.91041e-005
Heightened Def Con from 9.91062e-005 to 9.91082e-005
Heightened Def Con from 9.91087e-005 +to 9.91108e-005
Heightened Def Con from 9.91153e-005 +to 9.91253e-005
Heightened Def Con from 9.91304e-005 +++to 9.91455e-005
Heightened Def Con from 9.91493e-005 to 9.91535e-005
Heightened Def Con from 9.91536e-005 to 9.91557e-005
Heightened Def Con from 9.91577e-005 to 9.91619e-005
Heightened Def Con from 9.91675e-005 to 9.91686e-005
Heightened Def Con from 9.91766e-005 +++to 9.91927e-005
Heightened Def Con from 9.91932e-005 to 9.91942e-005
Heightened Def Con from 9.91942e-005 to 9.91952e-005
Heightened Def Con from 9.91952e-005 to 9.91983e-005
Heightened Def Con from 9.92025e-005 +to 9.92086e-005
Heightened Def Con from 9.92129e-005 +to 9.92181e-005
Heightened Def Con from 9.92184e-005 to 9.92235e-005
Heightened Def Con from 9.92245e-005 to 9.92256e-005
Heightened Def Con from 9.92268e-005 +to 9.92329e-005
Heightened Def Con from 9.92341e-005 +to 9.92393e-005
Heightened Def Con from 9.92427e-005 ++to 9.92468e-005
Heightened Def Con from 9.92479e-005 to 9.92489e-005
Heightened Def Con from 9.92496e-005 to 9.92507e-005
Heightened Def Con from 9.92517e-005 ++to 9.92567e-005
Heightened Def Con from 9.92605e-005 to 9.92615e-005
Heightened Def Con from 9.9265e-005 +++to 9.9269e-005
Heightened Def Con from 9.92703e-005 +to 9.92724e-005
Heightened Def Con from 9.92726e-005 to 9.92777e-005
Heightened Def Con from 9.92809e-005 to 9.92819e-005
Heightened Def Con from 9.92821e-005 to 9.92841e-005
Heightened Def Con from 9.92851e-005 to 9.92862e-005
Heightened Def Con from 9.92905e-005 ++to 9.92946e-005
Heightened Def Con from 9.92955e-005 +to 9.92975e-005
Heightened Def Con from 9.92975e-005 ++to 9.93006e-005
Heightened Def Con from 9.93018e-005 to 9.93028e-005
Heightened Def Con from 9.93034e-005 +to 9.93086e-005
Heightened Def Con from 9.93095e-005 to 9.93137e-005
Heightened Def Con from 9.93154e-005 +++to 9.93264e-005
Heightened Def Con from 9.93264e-005 to 9.93275e-005
Heightened Def Con from 9.93282e-005 to 9.93303e-005
Heightened Def Con from 9.93346e-005 +to 9.93406e-005
Heightened Def Con from 9.93418e-005 +to 9.93468e-005
Heightened Def Con from 9.93488e-005 to 9.93518e-005
Heightened Def Con from 9.93525e-005 to 9.93535e-005
Heightened Def Con from 9.93574e-005 ++to 9.93615e-005
Heightened Def Con from 9.93629e-005 +to 9.93681e-005
Heightened Def Con from 9.93727e-005 ++to 9.93759e-005
Heightened Def Con from 9.93765e-005 to 9.93796e-005
Heightened Def Con from 9.93822e-005 to 9.93842e-005
Heightened Def Con from 9.93853e-005 ++to 9.93954e-005
Heightened Def Con from 9.94033e-005 ++to 9.94064e-005
Heightened Def Con from 9.94095e-005 +to 9.94115e-005
Heightened Def Con from 9.94128e-005 ++to 9.94199e-005
Heightened Def Con from 9.94205e-005 to 9.94235e-005
Heightened Def Con from 9.9425e-005 ++to 9.9428e-005
Heightened Def Con from 9.94281e-005 to 9.94312e-005
Heightened Def Con from 9.94312e-005 +to 9.94354e-005
Heightened Def Con from 9.94387e-005 +to 9.94457e-005
Heightened Def Con from 9.94501e-005 ++to 9.94542e-005
Heightened Def Con from 9.94543e-005 +++to 9.94664e-005
Heightened Def Con from 9.94664e-005 ++to 9.94754e-005
Heightened Def Con from 9.9476e-005 to 9.9477e-005
Heightened Def Con from 9.9477e-005 to 9.94811e-005
Heightened Def Con from 9.94813e-005 to 9.94853e-005
Heightened Def Con from 9.94911e-005 +to 9.94932e-005
Heightened Def Con from 9.94975e-005 +++to 9.95015e-005
Heightened Def Con from 9.95015e-005 to 9.95025e-005
Heightened Def Con from 9.95025e-005 to 9.95036e-005
Heightened Def Con from 9.95072e-005 +++to 9.95192e-005
Heightened Def Con from 9.95207e-005 to 9.95259e-005
Heightened Def Con from 9.95259e-005 to 9.95279e-005
Heightened Def Con from 9.95279e-005 +to 9.95329e-005
Heightened Def Con from 9.9533e-005 to 9.9541e-005
Heightened Def Con from 9.95435e-005 to 9.95505e-005
Heightened Def Con from 9.95506e-005 +to 9.95606e-005
Heightened Def Con from 9.95672e-005 ++to 9.95723e-005
Heightened Def Con from 9.95756e-005 to 9.95766e-005
Heightened Def Con from 9.95771e-005 +++to 9.95843e-005
Heightened Def Con from 9.95855e-005 ++to 9.95906e-005
Heightened Def Con from 9.95906e-005 to 9.95927e-005
Heightened Def Con from 9.95931e-005 to 9.95952e-005
Heightened Def Con from 9.95963e-005 to 9.95983e-005
Heightened Def Con from 9.95983e-005 to 9.96035e-005
Heightened Def Con from 9.96049e-005 to 9.96059e-005
Heightened Def Con from 9.9606e-005 to 9.96091e-005
Heightened Def Con from 9.96104e-005 to 9.96115e-005
Heightened Def Con from 9.96165e-005 ++to 9.96195e-005
Heightened Def Con from 9.962e-005 +to 9.9626e-005
Heightened Def Con from 9.9626e-005 to 9.96322e-005
Heightened Def Con from 9.96367e-005 +to 9.96387e-005
Heightened Def Con from 9.96396e-005 to 9.96417e-005
Heightened Def Con from 9.96421e-005 +to 9.96472e-005
Heightened Def Con from 9.96503e-005 to 9.96515e-005
Heightened Def Con from 9.96517e-005 to 9.96549e-005
Heightened Def Con from 9.9656e-005 to 9.9657e-005
Heightened Def Con from 9.9674e-005 +++to 9.968e-005
Heightened Def Con from 9.96801e-005 to 9.96811e-005
Heightened Def Con from 9.96825e-005 +to 9.96866e-005
Heightened Def Con from 9.96867e-005 to 9.96877e-005
Heightened Def Con from 9.96883e-005 to 9.96893e-005
Heightened Def Con from 9.96893e-005 +to 9.96923e-005
Heightened Def Con from 9.96923e-005 to 9.96944e-005
Heightened Def Con from 9.96962e-005 +to 9.96982e-005
Heightened Def Con from 9.96995e-005 +++to 9.97056e-005
Heightened Def Con from 9.97056e-005 to 9.97117e-005
Heightened Def Con from 9.97118e-005 +to 9.97169e-005
Heightened Def Con from 9.9717e-005 +to 9.97251e-005
Heightened Def Con from 9.97295e-005 +to 9.97316e-005
Heightened Def Con from 9.97327e-005 ++to 9.97378e-005
Heightened Def Con from 9.97381e-005 to 9.97422e-005
Heightened Def Con from 9.97423e-005 to 9.97454e-005
Heightened Def Con from 9.97455e-005 to 9.97467e-005
Heightened Def Con from 9.97479e-005 +to 9.975e-005
Heightened Def Con from 9.97503e-005 +to 9.97584e-005
Heightened Def Con from 9.97625e-005 +++to 9.97696e-005
Heightened Def Con from 9.97697e-005 to 9.97727e-005
Heightened Def Con from 9.9775e-005 +to 9.978e-005
Heightened Def Con from 9.97834e-005 ++to 9.97875e-005
Heightened Def Con from 9.97884e-005 ++to 9.97915e-005
Heightened Def Con from 9.97935e-005 ++to 9.98055e-005
Heightened Def Con from 9.9809e-005 +to 9.9811e-005
Heightened Def Con from 9.98225e-005 ++to 9.98255e-005
Heightened Def Con from 9.98258e-005 to 9.98268e-005
Heightened Def Con from 9.98271e-005 +to 9.98292e-005
Heightened Def Con from 9.98328e-005 ++to 9.98368e-005
Heightened Def Con from 9.98404e-005 ++to 9.98544e-005
Heightened Def Con from 9.98556e-005 ++to 9.98657e-005
Heightened Def Con from 9.98716e-005 to 9.98737e-005
Heightened Def Con from 9.98745e-005 to 9.98765e-005
Heightened Def Con from 9.98767e-005 +to 9.98808e-005
Heightened Def Con from 9.98811e-005 +to 9.98862e-005
Heightened Def Con from 9.98865e-005 +to 9.98895e-005
Heightened Def Con from 9.98918e-005 +to 9.99018e-005
Heightened Def Con from 9.99031e-005 to 9.99081e-005
Heightened Def Con from 9.99101e-005 to 9.99181e-005
Heightened Def Con from 9.9919e-005 to 9.99201e-005
Heightened Def Con from 9.9922e-005 +to 9.99282e-005
Heightened Def Con from 9.99282e-005 to 9.99293e-005
Heightened Def Con from 9.99325e-005 ++to 9.99415e-005
Heightened Def Con from 9.99415e-005 to 9.99497e-005
Heightened Def Con from 9.99509e-005 to 9.99519e-005
Heightened Def Con from 9.99519e-005 +to 9.9957e-005
Heightened Def Con from 9.9959e-005 to 9.99602e-005
Heightened Def Con from 9.99602e-005 +to 9.99622e-005
Heightened Def Con from 9.99622e-005 to 9.99632e-005
Heightened Def Con from 9.99675e-005 ++to 9.99785e-005
Heightened Def Con from 9.99815e-005 to 9.99826e-005
Heightened Def Con from 9.9986e-005 to 9.99871e-005
Heightened Def Con from 9.99871e-005 +to 9.99981e-005

Date: Sun Apr 03 17:42:12 2022
Total elapsed time: 228.789 seconds.

tnom = 27
temp = 27
method = modified trap
totiter = 6250775
traniter = 6250366
tranpoints = 958812
accept = 480885
rejected = 509447
matrix size = 318
fillins = 1215
solver = Normal
Matrix Compiler1: 118.68 KB object code size  13.3/6.4/[3.6]
Matrix Compiler2: 46.84 KB object code size  2.4/2.8/[1.0]

