Circuit: * D:\Projekte\ELController\ltspice model\Output test board pullup.asc

Limiting rise time of source v2 to 1.6e-009
Limiting fall time of source v2 to 1.6e-009
WARNING: Node N003 is floating.

Direct Newton iteration for .op point succeeded.

Date: Wed Mar 22 22:23:52 2023
Total elapsed time: 0.035 seconds.

tnom = 27
temp = 27
method = modified trap
totiter = 3480
traniter = 3477
tranpoints = 1708
accept = 1579
rejected = 129
matrix size = 6
fillins = 0
solver = Normal
Matrix Compiler1: off  [0.1]/0.1/0.1
Matrix Compiler2: 326 bytes object code size  0.1/0.1/[0.1]

