Circuit: * D:\Projekte\ELController\ltspice model\output dampening.asc

R2: both pins shorted together -- ignoring.
Limiting rise time of source v1 to 1e-006
Limiting fall time of source v1 to 1e-006
WARNING: Node N005 is floating.

.OP point found by inspection.

Date: Thu Feb 16 17:31:30 2023
Total elapsed time: 1.863 seconds.

tnom = 27
temp = 27
method = modified trap
totiter = 631867
traniter = 631867
tranpoints = 270099
accept = 216824
rejected = 53275
matrix size = 6
fillins = 0
solver = Normal
Matrix Compiler1: 200 bytes object code size  0.2/0.1/[0.1]
Matrix Compiler2: 394 bytes object code size  0.2/0.2/[0.1]

