Circuit: * D:\Projekte\ELController\ltspice model\OutputDriver R2.asc

WARNING: Specified period is not longer than the sum of Trise, Tfall, and Ton for v5.  Increasing period to 1e-005
Limiting rise time of source v5 to 2.03288e-021
Limiting fall time of source v5 to 2.03288e-021
Direct Newton iteration for .op point succeeded.

Date: Wed Aug 24 21:12:16 2022
Total elapsed time: 1.187 seconds.

tnom = 27
temp = 27
method = modified trap
totiter = 81049
traniter = 81026
tranpoints = 32521
accept = 22410
rejected = 10111
matrix size = 28
fillins = 2
solver = Normal
Matrix Compiler1: 1.53 KB object code size  0.3/0.2/[0.2]
Matrix Compiler2: off  [0.2]/0.3/0.3

