Circuit: * Z:\media\Daten\Projekte\ELController\ltspice model\SI7119DN test.asc

Limiting rise time of source v2 to 5e-007
Limiting fall time of source v2 to 5e-007
Instance "m:u1:2": Length shorter than recommended for a level 3 MOSFET.
Instance "m:u1:1": Length shorter than recommended for a level 3 MOSFET.
Direct Newton iteration for .op point succeeded.

Date: Mon Mar 21 21:31:31 2022
Total elapsed time: 0.048 seconds.

tnom = 27
temp = 27
method = modified trap
totiter = 3021
traniter = 3013
tranpoints = 1386
accept = 1297
rejected = 89
matrix size = 13
fillins = 0
solver = Normal
Matrix Compiler1: 710 bytes object code size  0.1/0.1/[0.1]
Matrix Compiler2: off  [0.1]/0.1/0.1

