Circuit: * Z:\media\Daten\Projekte\ELController\ltspice model\SI7119DN test 2.asc

Limiting rise time of source v2 to 5e-007
Limiting fall time of source v2 to 5e-007
Instance "m:u1:2": Length shorter than recommended for a level 3 MOSFET.
Instance "m:u1:1": Length shorter than recommended for a level 3 MOSFET.
Direct Newton iteration for .op point succeeded.

Date: Sun Mar 20 13:24:51 2022
Total elapsed time: 0.137 seconds.

tnom = 27
temp = 27
method = modified trap
totiter = 24228
traniter = 24200
tranpoints = 11038
accept = 9287
rejected = 1751
matrix size = 9
fillins = 0
solver = Normal
Matrix Compiler1: 582 bytes object code size  0.1/0.1/[0.1]
Matrix Compiler2: off  [0.1]/0.1/0.2

