Circuit: * Z:\media\Daten\Projekte\ELController\ltspice model\STN6N60M2 test.asc

Limiting rise time of source v2 to 5e-007
Limiting fall time of source v2 to 5e-007
Direct Newton iteration for .op point succeeded.

Date: Sun Mar 20 14:22:43 2022
Total elapsed time: 0.064 seconds.

tnom = 27
temp = 27
method = modified trap
totiter = 7623
traniter = 7619
tranpoints = 3011
accept = 2461
rejected = 550
matrix size = 56
fillins = 47
solver = Normal
Matrix Compiler1: 3.94 KB object code size  0.5/0.3/[0.2]
Matrix Compiler2: 4.59 KB object code size  0.2/0.4/[0.2]

