Circuit: * D:\Projekte\ELController\ltspice model\storage cap discharge test.asc

Limiting rise time of source v1 to 1e-005
Limiting fall time of source v1 to 1e-005
WARNING: Node N003 is floating.

Direct Newton iteration for .op point succeeded.

Date: Sat Apr 02 15:28:02 2022
Total elapsed time: 0.028 seconds.

tnom = 27
temp = 27
method = modified trap
totiter = 2314
traniter = 2310
tranpoints = 1150
accept = 1118
rejected = 32
matrix size = 6
fillins = 0
solver = Normal
Matrix Compiler1: 128 bytes object code size  0.1/0.1/[0.1]
Matrix Compiler2: 320 bytes object code size  0.1/0.1/[0.1]

