Circuit: * Z:\media\Daten\Projekte\ELController\ltspice model\voltage controlled switch test 2.asc

Limiting rise time of source v2 to 5e-005
Limiting fall time of source v2 to 5e-005
Direct Newton iteration for .op point succeeded.

Date: Sat Mar 19 23:30:53 2022
Total elapsed time: 0.041 seconds.

tnom = 27
temp = 27
method = modified trap
totiter = 2169
traniter = 2166
tranpoints = 1082
accept = 1072
rejected = 10
matrix size = 5
fillins = 0
solver = Normal
Matrix Compiler1: 78 bytes object code size  0.1/0.1/[0.1]
Matrix Compiler2: off  [0.1]/0.1/0.1

