Circuit: * D:\Projekte\ELController\ltspice model\voltage controlled switch test.asc

Direct Newton iteration for .op point succeeded.

Date: Fri Mar 18 20:53:20 2022
Total elapsed time: 0.017 seconds.

tnom = 27
temp = 27
method = modified trap
totiter = 2086
traniter = 2082
tranpoints = 1042
accept = 1042
rejected = 0
matrix size = 5
fillins = 0
solver = Normal
Matrix Compiler1: 114 bytes object code size  0.1/0.1/[0.1]
Matrix Compiler2: 241 bytes object code size  0.1/0.1/[0.1]

